<configuration>

<input>
    <net-file value="..\map_net_xml\campus_irit_map.net.xml"/>
    <route-files value="..\map_rou_xml\campus_irit_map.rou.xml"/>
</input>
<time>
    <begin value="0"/>
    <end value="2000"/>
</time>

</configuration>