<configuration>
<input>
    <net-file value="../map_net_xml/insertions_autoroute.net.xml"/>
    <route-files value="../map_rou_xml/insertions_autoroute.rou.xml"/>
</input>
<time>
    <begin value="0"/>
    <end value="2000"/>
</time>
</configuration>
