<?xml version="1.0" encoding="UTF-8"?>

<!-- generated on 2022-02-16 16:22:11 by Eclipse SUMO netedit Version 1.11.0
<configuration xmlns:xsi="http://www.w3.org/2001/XMLSchema-instance" xsi:noNamespaceSchemaLocation="http://sumo.dlr.de/xsd/netconvertConfiguration.xsd">

    <input>
        <sumo-net-file value="D:\script_carla\map_net_xml\aire_autoroute.net.xml"/>
    </input>

    <output>
        <output-file value="D:\script_carla\map_net_xml\aire_autoroute.net.xml"/>
    </output>

    <processing>
        <geometry.min-radius.fix.railways value="false"/>
        <geometry.max-grade.fix value="false"/>
        <offset.disable-normalization value="true"/>
        <lefthand value="false"/>
    </processing>

    <junctions>
        <no-turnarounds value="true"/>
        <junctions.corner-detail value="5"/>
        <junctions.limit-turn-speed value="5.5"/>
        <rectangular-lane-cut value="true"/>
    </junctions>

    <pedestrian>
        <walkingareas value="false"/>
    </pedestrian>

    <report>
        <aggregate-warnings value="5"/>
    </report>

</configuration>
-->

<net version="1.9" junctionCornerDetail="5" rectangularLaneCut="true" limitTurnSpeed="5.50" xmlns:xsi="http://www.w3.org/2001/XMLSchema-instance" xsi:noNamespaceSchemaLocation="http://sumo.dlr.de/xsd/net_file.xsd">

    <location netOffset="-1.38,-4.20" convBoundary="3943.68,1268.91,5220.95,1811.54" origBoundary="1.38,4.20,14200.95,1938.81" projParameter="!"/>

    <type id="bidirectional" priority="1" speed="1.39" disallow="pedestrian tram rail_urban rail rail_electric rail_fast ship" width="3.65"/>
    <type id="border" priority="0" speed="1.39" disallow="all" discard="1" width="0.10"/>
    <type id="driving" priority="1" speed="13.89" disallow="pedestrian tram rail_urban rail rail_electric rail_fast ship" width="3.65"/>
    <type id="entry" priority="1" speed="22.22" disallow="pedestrian tram rail_urban rail rail_electric rail_fast ship" width="3.65"/>
    <type id="exit" priority="1" speed="22.22" disallow="pedestrian tram rail_urban rail rail_electric rail_fast ship" width="3.65"/>
    <type id="median" priority="0" speed="1.39" disallow="all" discard="1" width="0.10"/>
    <type id="mwyEntry" priority="1" speed="22.22" allow="private emergency authority army vip passenger hov taxi bus coach delivery truck trailer motorcycle evehicle custom1 custom2" width="3.65"/>
    <type id="mwyExit" priority="1" speed="22.22" allow="private emergency authority army vip passenger hov taxi bus coach delivery truck trailer motorcycle evehicle custom1 custom2" width="3.65"/>
    <type id="none" priority="0" speed="1.39" disallow="all" discard="1" width="1.00"/>
    <type id="offRamp" priority="1" speed="22.22" allow="private emergency authority army vip passenger hov taxi bus coach delivery truck trailer motorcycle evehicle custom1 custom2" width="3.65"/>
    <type id="onRamp" priority="1" speed="22.22" allow="private emergency authority army vip passenger hov taxi bus coach delivery truck trailer motorcycle evehicle custom1 custom2" width="3.65"/>
    <type id="parking" priority="1" speed="1.39" disallow="pedestrian tram rail_urban rail rail_electric rail_fast ship" width="2.50"/>
    <type id="rail" priority="3" speed="33.33" allow="rail_urban rail rail_electric rail_fast" width="3.65"/>
    <type id="restricted" priority="0" speed="13.89" disallow="all" width="3.65"/>
    <type id="roadWorks" priority="0" speed="1.39" allow="authority" width="3.65"/>
    <type id="shoulder" priority="0" speed="1.39" disallow="all" discard="1" width="1.00"/>
    <type id="special1" priority="1" speed="22.22" allow="custom1" discard="1" width="3.65"/>
    <type id="special2" priority="1" speed="22.22" allow="custom2" discard="1" width="3.65"/>
    <type id="special3" priority="1" speed="22.22" allow="custom1 custom2" discard="1" width="3.65"/>
    <type id="stop" priority="1" speed="13.89" disallow="pedestrian tram rail_urban rail rail_electric rail_fast ship" width="3.65"/>
    <type id="tram" priority="2" speed="13.89" allow="tram" width="3.65"/>

    <edge id=":3_0" function="internal">
        <lane id=":3_0_0" index="0" disallow="pedestrian tram rail_urban rail rail_electric rail_fast ship" speed="36.11" length="3.51" width="4.00" shape="5123.39,1299.25 5126.66,1298.06"/>
        <lane id=":3_0_1" index="1" disallow="pedestrian tram rail_urban rail rail_electric rail_fast ship" speed="36.11" length="3.51" width="4.00" shape="5124.75,1303.02 5128.07,1301.80"/>
    </edge>
    <edge id=":3_2" function="internal">
        <lane id=":3_2_0" index="0" disallow="pedestrian tram rail_urban rail rail_electric rail_fast ship" speed="29.16" length="3.31" width="4.00" shape="5122.18,1295.55 5125.25,1294.31"/>
    </edge>
    <edge id=":4_0" function="internal">
        <lane id=":4_0_0" index="0" disallow="pedestrian tram rail_urban rail rail_electric rail_fast ship" speed="29.16" length="5.36" width="4.00" shape="4031.66,1766.11 4033.13,1765.51 4034.17,1765.16 4035.22,1764.88 4036.76,1764.47"/>
    </edge>
    <edge id=":4_1" function="internal">
        <lane id=":4_1_0" index="0" disallow="pedestrian tram rail_urban rail rail_electric rail_fast ship" speed="36.11" length="3.93" width="4.00" shape="4033.25,1769.78 4036.76,1768.18"/>
        <lane id=":4_1_1" index="1" disallow="pedestrian tram rail_urban rail rail_electric rail_fast ship" speed="36.11" length="3.93" width="4.00" shape="4034.84,1773.45 4038.47,1771.79"/>
    </edge>
    <edge id=":5_0" function="internal">
        <lane id=":5_0_0" index="0" disallow="pedestrian tram rail_urban rail rail_electric rail_fast ship" speed="29.16" length="4.56" width="4.00" shape="5099.36,1328.21 5098.08,1328.66 5097.20,1328.93 5096.30,1329.15 5094.98,1329.46"/>
    </edge>
    <edge id=":5_1" function="internal">
        <lane id=":5_1_0" index="0" disallow="pedestrian tram rail_urban rail rail_electric rail_fast ship" speed="36.11" length="3.47" width="4.00" shape="5097.98,1324.45 5094.72,1325.65"/>
        <lane id=":5_1_1" index="1" disallow="pedestrian tram rail_urban rail rail_electric rail_fast ship" speed="36.11" length="3.47" width="4.00" shape="5096.60,1320.70 5093.34,1321.89"/>
    </edge>
    <edge id=":8_0" function="internal">
        <lane id=":8_0_0" index="0" disallow="pedestrian tram rail_urban rail rail_electric rail_fast ship" speed="36.11" length="3.48" width="4.00" shape="4299.75,1658.07 4296.63,1659.58"/>
        <lane id=":8_0_1" index="1" disallow="pedestrian tram rail_urban rail rail_electric rail_fast ship" speed="36.11" length="3.48" width="4.00" shape="4298.02,1654.46 4294.87,1655.99"/>
    </edge>
    <edge id=":8_2" function="internal">
        <lane id=":8_2_0" index="0" disallow="pedestrian tram rail_urban rail rail_electric rail_fast ship" speed="29.16" length="3.32" width="4.00" shape="4301.33,1661.63 4298.39,1663.17"/>
    </edge>

    <edge id="-193.0.00" from="193.begin" to="3" priority="1" type="driving" shape="4624.43,1401.19 4760.37,1384.38 4761.86,1384.20 4763.54,1383.99 4765.37,1383.76 4767.31,1383.51 4769.34,1383.25 4771.40,1382.99 4773.46,1382.73 4775.48,1382.46 4777.42,1382.21 4779.25,1381.98 4780.93,1381.76 4782.41,1381.56 4929.44,1362.08 4930.92,1361.86 4932.58,1361.58 4934.38,1361.24 4936.30,1360.86 4938.29,1360.44 4940.31,1359.98 4942.32,1359.51 4944.30,1359.02 4946.19,1358.53 4947.96,1358.05 4949.58,1357.58 4951.00,1357.13 5050.62,1324.17 5052.04,1323.69 5053.64,1323.15 5055.39,1322.56 5057.24,1321.93 5059.17,1321.27 5061.13,1320.59 5063.10,1319.91 5065.02,1319.24 5066.87,1318.60 5068.61,1317.98 5070.21,1317.42 5071.62,1316.92 5095.72,1308.25 5097.13,1307.73 5098.72,1307.14 5100.44,1306.49 5102.27,1305.79 5104.17,1305.06 5106.11,1304.31 5108.04,1303.55 5109.94,1302.80 5111.76,1302.07 5113.47,1301.38 5115.03,1300.73 5116.41,1300.16 5123.12,1297.32">
        <lane id="-193.0.00_0" index="0" disallow="pedestrian tram rail_urban rail rail_electric rail_fast ship" speed="22.22" length="511.18" width="4.00" shape="4624.18,1399.21 4760.12,1382.40 4761.62,1382.21 4763.29,1382.01 4765.12,1381.78 4767.06,1381.53 4769.09,1381.27 4771.15,1381.01 4773.20,1380.75 4775.22,1380.48 4777.17,1380.23 4779.00,1380.00 4780.67,1379.78 4782.14,1379.58 4929.18,1360.10 4930.61,1359.88 4932.23,1359.61 4934.00,1359.28 4935.90,1358.90 4937.86,1358.49 4939.86,1358.03 4941.85,1357.57 4943.81,1357.08 4945.68,1356.60 4947.42,1356.12 4949.00,1355.67 4950.38,1355.23 5049.99,1322.27 5051.40,1321.80 5053.00,1321.25 5054.75,1320.67 5056.59,1320.04 5058.52,1319.38 5060.48,1318.70 5062.44,1318.02 5064.36,1317.35 5066.21,1316.71 5067.94,1316.09 5069.55,1315.53 5070.95,1315.04 5095.04,1306.37 5096.44,1305.85 5098.02,1305.27 5099.73,1304.62 5101.55,1303.92 5103.45,1303.19 5105.38,1302.45 5107.31,1301.69 5109.20,1300.94 5111.01,1300.21 5112.71,1299.53 5114.26,1298.88 5115.63,1298.32 5122.18,1295.55" type="driving"/>
    </edge>
    <edge id="-194.0.00" from="4" to="194.end" priority="1" type="driving" shape="4036.57,1766.60 4041.01,1765.35 4042.44,1764.93 4044.05,1764.41 4045.79,1763.83 4047.63,1763.18 4049.54,1762.48 4051.48,1761.75 4053.41,1761.00 4055.30,1760.24 4057.10,1759.49 4058.79,1758.77 4060.33,1758.08 4061.68,1757.44 4130.14,1723.73 4131.48,1723.06 4132.99,1722.30 4134.64,1721.46 4136.38,1720.56 4138.18,1719.62 4140.02,1718.65 4141.86,1717.68 4143.66,1716.73 4145.38,1715.80 4147.00,1714.92 4148.49,1714.11 4149.80,1713.38 4200.08,1685.10 4201.39,1684.30 4202.83,1683.29 4204.37,1682.13 4205.96,1680.85 4207.58,1679.50 4209.17,1678.13 4210.71,1676.77 4212.15,1675.47 4213.46,1674.28 4214.59,1673.24 4215.73,1672.16 4217.03,1670.89 4218.44,1669.47 4219.90,1667.97 4221.37,1666.42 4222.81,1664.89 4224.15,1663.41 4225.36,1662.05 4226.37,1660.86 4227.43,1659.51 4228.63,1657.85 4229.89,1656.02 4231.11,1654.17 4232.19,1652.43 4233.05,1650.95 4353.65,1430.41 4354.38,1429.10 4355.20,1427.62 4356.09,1426.01 4357.05,1424.30 4358.05,1422.52 4359.07,1420.71 4360.09,1418.90 4361.10,1417.13 4362.07,1415.43 4362.99,1413.83 4363.83,1412.36 4364.58,1411.07 4366.25,1408.22">
        <lane id="-194.0.00_0" index="0" disallow="pedestrian tram rail_urban rail rail_electric rail_fast ship" speed="22.22" length="505.40" width="4.00" shape="4036.76,1764.47 4040.46,1763.43 4041.85,1763.02 4043.43,1762.51 4045.14,1761.94 4046.95,1761.30 4048.84,1760.61 4050.77,1759.88 4052.67,1759.14 4054.54,1758.39 4056.32,1757.65 4057.99,1756.94 4059.49,1756.26 4060.81,1755.64 4129.26,1721.94 4130.58,1721.27 4132.09,1720.52 4133.73,1719.68 4135.46,1718.79 4137.25,1717.85 4139.09,1716.88 4140.93,1715.91 4142.72,1714.97 4144.43,1714.04 4146.05,1713.16 4147.53,1712.36 4148.82,1711.63 4199.10,1683.36 4200.29,1682.63 4201.65,1681.67 4203.14,1680.55 4204.69,1679.30 4206.29,1677.97 4207.86,1676.62 4209.38,1675.28 4210.81,1673.99 4212.11,1672.80 4213.22,1671.78 4214.34,1670.72 4215.62,1669.47 4217.01,1668.07 4218.46,1666.58 4219.92,1665.05 4221.34,1663.53 4222.66,1662.07 4223.85,1660.74 4224.82,1659.60 4225.83,1658.31 4227.00,1656.70 4228.23,1654.90 4229.43,1653.09 4230.48,1651.40 4231.31,1649.97 4351.90,1429.45 4352.63,1428.13 4353.45,1426.65 4354.34,1425.04 4355.31,1423.32 4356.31,1421.54 4357.33,1419.73 4358.35,1417.91 4359.36,1416.14 4360.33,1414.44 4361.25,1412.84 4362.10,1411.36 4362.85,1410.06 4364.52,1407.21" type="driving"/>
    </edge>
    <edge id="-195.0.00" from="5" to="195.end" priority="1" type="driving" shape="5094.96,1327.41 5078.22,1331.53 5076.77,1331.91 5075.15,1332.36 5073.38,1332.87 5071.51,1333.44 5069.57,1334.05 5067.59,1334.69 5065.63,1335.34 5063.70,1336.00 5061.86,1336.65 5060.13,1337.28 5058.55,1337.88 5057.16,1338.43 4961.11,1378.14 4959.73,1378.71 4958.17,1379.36 4956.47,1380.08 4954.66,1380.84 4952.78,1381.63 4950.87,1382.44 4948.96,1383.25 4947.08,1384.04 4945.27,1384.80 4943.57,1385.52 4942.02,1386.18 4940.64,1386.76 4939.09,1387.41 4937.56,1388.09 4936.22,1388.75 4934.70,1389.50 4933.05,1390.31 4931.30,1391.18 4929.48,1392.09 4927.62,1393.02 4925.77,1393.95 4923.95,1394.86 4922.21,1395.75 4920.57,1396.59 4919.07,1397.37 4917.75,1398.07 4916.30,1398.86 4914.61,1399.81 4912.77,1400.85 4910.85,1401.96 4908.94,1403.08 4907.12,1404.17 4905.47,1405.17 4904.07,1406.06 4902.83,1406.86 4901.39,1407.82 4899.83,1408.88 4898.20,1410.01 4896.60,1411.15 4895.08,1412.28 4893.72,1413.34 4892.60,1414.30 4891.51,1415.33 4890.28,1416.55 4888.96,1417.91 4887.58,1419.36 4886.18,1420.88 4884.80,1422.41 4883.47,1423.91 4882.23,1425.34 4881.11,1426.66 4880.17,1427.84 4879.26,1429.01 4878.25,1430.38 4877.17,1431.89 4876.04,1433.51 4874.89,1435.18 4873.77,1436.87 4872.69,1438.52 4871.70,1440.10 4870.81,1441.55 4870.06,1442.83 4869.29,1444.24 4868.43,1445.86 4867.52,1447.64 4866.56,1449.54 4865.59,1451.52 4864.63,1453.53 4863.70,1455.52 4862.82,1457.46 4862.02,1459.30 4861.31,1460.98 4860.72,1462.48 4860.20,1463.95 4859.65,1465.64 4859.09,1467.51 4858.53,1469.50 4857.97,1471.55 4857.44,1473.61 4856.95,1475.62 4856.50,1477.52 4856.12,1479.26 4855.82,1480.78 4855.55,1482.37 4855.28,1484.20 4855.03,1486.22 4854.78,1488.36 4854.57,1490.53 4854.37,1492.66 4854.21,1494.70 4854.10,1496.55 4854.02,1498.15 4853.99,1499.64 4853.97,1501.32 4853.97,1503.15 4854.00,1505.09 4854.03,1507.12 4854.08,1509.18 4854.13,1511.24 4854.20,1513.26 4854.26,1515.21 4854.33,1517.04 4854.40,1518.71 4854.47,1520.20 4854.55,1521.69 4854.65,1523.38 4854.76,1525.22 4854.90,1527.17 4855.04,1529.20 4855.19,1531.27 4855.35,1533.34 4855.51,1535.37 4855.67,1537.32 4855.83,1539.15 4855.97,1540.84 4856.11,1542.33 4856.28,1543.90 4856.53,1545.78 4856.82,1547.81 4857.10,1549.84 4857.34,1551.72 4857.51,1553.30 4857.64,1554.79 4857.78,1556.47 4857.94,1558.31 4858.09,1560.26 4858.25,1562.29 4858.40,1564.36 4858.55,1566.43 4858.68,1568.46 4858.79,1570.41 4858.87,1572.25 4858.93,1573.94 4858.95,1575.43 4858.97,1584.00">
        <lane id="-195.0.00_0" index="0" disallow="pedestrian tram rail_urban rail rail_electric rail_fast ship" speed="22.22" length="398.69" width="4.00" shape="5094.98,1329.46 5078.70,1333.47 5077.29,1333.84 5075.69,1334.28 5073.95,1334.79 5072.10,1335.35 5070.18,1335.96 5068.21,1336.59 5066.27,1337.24 5064.36,1337.89 5062.54,1338.53 5060.83,1339.15 5059.27,1339.75 5057.91,1340.28 4961.87,1379.99 4960.50,1380.56 4958.94,1381.20 4957.25,1381.92 4955.43,1382.68 4953.56,1383.47 4951.65,1384.28 4949.74,1385.09 4947.85,1385.88 4946.05,1386.64 4944.35,1387.36 4942.80,1388.02 4941.41,1388.60 4939.88,1389.25 4938.41,1389.90 4937.10,1390.54 4935.58,1391.29 4933.94,1392.10 4932.19,1392.97 4930.37,1393.88 4928.52,1394.81 4926.67,1395.74 4924.85,1396.64 4923.12,1397.53 4921.49,1398.37 4920.00,1399.14 4918.70,1399.83 4917.27,1400.61 4915.59,1401.55 4913.76,1402.59 4911.86,1403.69 4909.96,1404.80 4908.15,1405.88 4906.52,1406.87 4905.15,1407.74 4903.93,1408.53 4902.51,1409.48 4900.96,1410.53 4899.35,1411.65 4897.78,1412.77 4896.29,1413.87 4894.98,1414.89 4893.94,1415.79 4892.90,1416.77 4891.70,1417.96 4890.40,1419.30 4889.04,1420.73 4887.66,1422.23 4886.29,1423.74 4884.97,1425.23 4883.75,1426.64 4882.65,1427.93 4881.74,1429.08 4880.86,1430.22 4879.87,1431.55 4878.80,1433.04 4877.68,1434.65 4876.55,1436.30 4875.44,1437.97 4874.37,1439.60 4873.40,1441.15 4872.52,1442.58 4871.80,1443.81 4871.05,1445.19 4870.20,1446.78 4869.30,1448.55 4868.35,1450.43 4867.39,1452.39 4866.44,1454.38 4865.52,1456.36 4864.65,1458.27 4863.86,1460.09 4863.16,1461.74 4862.59,1463.18 4862.09,1464.59 4861.56,1466.24 4861.01,1468.07 4860.46,1470.03 4859.90,1472.06 4859.38,1474.10 4858.89,1476.09 4858.45,1477.96 4858.08,1479.67 4857.79,1481.14 4857.53,1482.68 4857.26,1484.47 4857.02,1486.46 4856.77,1488.57 4856.56,1490.72 4856.36,1492.83 4856.21,1494.84 4856.10,1496.66 4856.02,1498.22 4855.99,1499.67 4855.97,1501.33 4855.97,1503.13 4856.00,1505.06 4856.03,1507.08 4856.08,1509.13 4856.13,1511.18 4856.20,1513.19 4856.26,1515.14 4856.33,1516.96 4856.40,1518.62 4856.47,1520.10 4856.55,1521.58 4856.65,1523.26 4856.76,1525.09 4856.90,1527.03 4857.04,1529.06 4857.18,1531.12 4857.34,1533.18 4857.50,1535.21 4857.66,1537.15 4857.82,1538.98 4857.96,1540.66 4858.10,1542.13 4858.27,1543.66 4858.51,1545.51 4858.80,1547.53 4859.08,1549.58 4859.33,1551.48 4859.50,1553.11 4859.63,1554.62 4859.77,1556.30 4859.93,1558.15 4860.08,1560.10 4860.24,1562.14 4860.39,1564.22 4860.55,1566.29 4860.68,1568.34 4860.79,1570.31 4860.87,1572.17 4860.93,1573.89 4860.95,1575.42 4860.97,1584.00" type="driving"/>
    </edge>
    <edge id="-197.0.00" from="6" to="4" priority="1" type="driving" shape="3948.10,1811.54 3976.01,1800.47 3977.40,1799.91 3978.91,1799.30 3980.53,1798.65 3982.25,1797.95 3984.05,1797.22 3985.91,1796.46 3987.82,1795.67 3989.77,1794.87 3991.73,1794.06 3993.71,1793.24 3995.68,1792.42 3997.62,1791.61 3999.53,1790.82 4001.38,1790.04 4003.17,1789.28 4004.87,1788.56 4006.49,1787.88 4007.99,1787.24 4009.36,1786.64 4035.63,1775.29">
        <lane id="-197.0.00_0" index="0" disallow="pedestrian tram rail_urban rail rail_electric rail_fast ship" speed="36.11" length="97.81" width="4.00" shape="3941.40,1803.44 3972.32,1791.18 3973.66,1790.64 3975.18,1790.02 3976.78,1789.38 3978.49,1788.69 3980.28,1787.96 3982.11,1787.21 3984.01,1786.42 3985.96,1785.62 3987.91,1784.82 3989.88,1784.00 3991.83,1783.19 3993.78,1782.38 3995.68,1781.59 3997.48,1780.83 3999.27,1780.07 4000.98,1779.35 4002.59,1778.67 4004.02,1778.06 4005.37,1777.47 4031.66,1766.11" type="driving"/>
        <lane id="-197.0.00_1" index="1" disallow="pedestrian tram rail_urban rail rail_electric rail_fast ship" speed="36.11" length="97.81" width="4.00" shape="3942.87,1807.16 3973.80,1794.89 3975.16,1794.35 3976.67,1793.73 3978.28,1793.09 3979.99,1792.39 3981.79,1791.66 3983.63,1790.91 3985.53,1790.12 3987.49,1789.32 3989.44,1788.52 3991.41,1787.70 3993.37,1786.88 3995.32,1786.07 3997.22,1785.28 3999.04,1784.51 4000.83,1783.76 4002.54,1783.03 4004.15,1782.35 4005.61,1781.73 4006.97,1781.14 4033.25,1769.78" type="driving"/>
        <lane id="-197.0.00_2" index="2" disallow="pedestrian tram rail_urban rail rail_electric rail_fast ship" speed="36.11" length="97.81" width="4.00" shape="3944.35,1810.88 3975.27,1798.61 3976.65,1798.06 3978.16,1797.44 3979.78,1796.80 3981.50,1796.10 3983.30,1795.37 3985.15,1794.61 3987.06,1793.82 3989.01,1793.02 3990.97,1792.21 3992.94,1791.39 3994.91,1790.57 3996.85,1789.76 3998.76,1788.97 4000.60,1788.20 4002.39,1787.44 4004.09,1786.72 4005.71,1786.04 4007.20,1785.40 4008.56,1784.81 4034.84,1773.45" type="driving"/>
    </edge>
    <edge id="-198.0.00" from="4" to="3" priority="1" type="driving" shape="4038.63,1773.93 4434.64,1585.79 4435.99,1585.15 4437.47,1584.45 4439.06,1583.71 4440.74,1582.93 4442.50,1582.11 4444.32,1581.26 4446.20,1580.40 4448.11,1579.52 4450.05,1578.63 4451.99,1577.74 4453.93,1576.86 4455.84,1575.98 4457.72,1575.13 4459.56,1574.30 4461.32,1573.50 4463.01,1572.74 4464.61,1572.03 4466.10,1571.36 4467.47,1570.76 4669.66,1481.69 4671.03,1481.09 4672.53,1480.44 4674.13,1479.74 4675.84,1479.01 4677.62,1478.25 4679.47,1477.47 4681.38,1476.66 4683.32,1475.85 4685.28,1475.03 4687.25,1474.20 4689.22,1473.39 4691.17,1472.58 4693.08,1471.79 4694.94,1471.03 4696.73,1470.30 4698.45,1469.60 4700.07,1468.95 4701.59,1468.34 4702.98,1467.79 4905.78,1387.90 4907.17,1387.35 4908.69,1386.75 4910.32,1386.11 4912.04,1385.44 4913.85,1384.73 4915.72,1384.00 4917.65,1383.25 4919.61,1382.49 4921.60,1381.71 4923.59,1380.94 4925.57,1380.17 4927.54,1379.40 4929.46,1378.66 4931.34,1377.93 4933.15,1377.23 4934.88,1376.56 4936.51,1375.93 4938.03,1375.34 4939.43,1374.81 5045.87,1333.91 5047.27,1333.38 5048.79,1332.80 5050.43,1332.18 5052.16,1331.52 5053.98,1330.84 5055.86,1330.13 5057.80,1329.41 5059.77,1328.67 5061.76,1327.93 5063.77,1327.18 5065.76,1326.44 5067.74,1325.71 5069.68,1324.99 5071.57,1324.30 5073.39,1323.63 5075.13,1322.99 5076.77,1322.40 5078.31,1321.84 5079.71,1321.33 5125.59,1304.84">
        <lane id="-198.0.00_0" index="0" disallow="pedestrian tram rail_urban rail rail_electric rail_fast ship" speed="36.11" length="1183.98" width="4.00" shape="4036.76,1768.18 4432.07,1580.37 4433.42,1579.73 4434.92,1579.02 4436.53,1578.27 4438.21,1577.49 4439.96,1576.67 4441.80,1575.81 4443.70,1574.95 4445.60,1574.07 4447.55,1573.18 4449.50,1572.28 4451.44,1571.40 4453.35,1570.52 4455.25,1569.66 4457.09,1568.83 4458.85,1568.03 4460.56,1567.26 4462.16,1566.55 4463.66,1565.88 4465.06,1565.27 4667.24,1476.20 4668.63,1475.59 4670.13,1474.94 4671.75,1474.23 4673.48,1473.49 4675.28,1472.73 4677.13,1471.94 4679.05,1471.13 4681.01,1470.31 4682.96,1469.50 4684.94,1468.66 4686.93,1467.84 4688.87,1467.04 4690.80,1466.24 4692.67,1465.48 4694.47,1464.74 4696.20,1464.04 4697.84,1463.38 4699.37,1462.77 4700.78,1462.21 4903.58,1382.32 4904.96,1381.77 4906.49,1381.17 4908.13,1380.52 4909.86,1379.85 4911.66,1379.14 4913.54,1378.41 4915.48,1377.66 4917.43,1376.90 4919.42,1376.12 4921.42,1375.35 4923.39,1374.58 4925.37,1373.81 4927.30,1373.06 4929.17,1372.34 4930.98,1371.63 4932.71,1370.96 4934.34,1370.33 4935.88,1369.74 4937.29,1369.20 5043.72,1328.31 5045.14,1327.77 5046.66,1327.19 5048.30,1326.57 5050.04,1325.91 5051.87,1325.22 5053.76,1324.51 5055.70,1323.79 5057.67,1323.05 5059.67,1322.31 5061.68,1321.56 5063.68,1320.81 5065.66,1320.08 5067.61,1319.36 5069.50,1318.67 5071.32,1318.00 5073.08,1317.35 5074.73,1316.76 5076.26,1316.20 5077.67,1315.69 5123.39,1299.25" type="driving"/>
        <lane id="-198.0.00_1" index="1" disallow="pedestrian tram rail_urban rail rail_electric rail_fast ship" speed="36.11" length="1183.98" width="4.00" shape="4038.47,1771.79 4433.78,1583.98 4435.13,1583.34 4436.62,1582.64 4438.22,1581.90 4439.90,1581.12 4441.65,1580.30 4443.48,1579.44 4445.37,1578.58 4447.27,1577.70 4449.22,1576.81 4451.16,1575.92 4453.10,1575.04 4455.01,1574.16 4456.90,1573.31 4458.74,1572.48 4460.50,1571.68 4462.19,1570.91 4463.79,1570.20 4465.29,1569.53 4466.67,1568.93 4668.85,1479.86 4670.23,1479.26 4671.73,1478.61 4673.34,1477.90 4675.05,1477.17 4676.84,1476.41 4678.69,1475.63 4680.60,1474.82 4682.55,1474.00 4684.51,1473.19 4686.48,1472.35 4688.46,1471.54 4690.40,1470.73 4692.32,1469.94 4694.18,1469.18 4695.98,1468.45 4697.70,1467.75 4699.33,1467.09 4700.85,1466.48 4702.25,1465.93 4905.05,1386.04 4906.43,1385.49 4907.96,1384.89 4909.59,1384.25 4911.31,1383.58 4913.12,1382.87 4914.99,1382.14 4916.93,1381.39 4918.88,1380.63 4920.87,1379.85 4922.87,1379.08 4924.84,1378.31 4926.82,1377.54 4928.74,1376.79 4930.62,1376.07 4932.43,1375.36 4934.16,1374.69 4935.79,1374.06 4937.31,1373.47 4938.72,1372.94 5045.15,1332.04 5046.56,1331.51 5048.08,1330.93 5049.72,1330.31 5051.45,1329.65 5053.28,1328.97 5055.16,1328.26 5057.10,1327.54 5059.07,1326.80 5061.06,1326.06 5063.07,1325.31 5065.07,1324.56 5067.05,1323.83 5068.99,1323.11 5070.88,1322.42 5072.70,1321.75 5074.45,1321.11 5076.09,1320.52 5077.63,1319.96 5079.03,1319.45 5124.75,1303.02" type="driving"/>
    </edge>
    <edge id="-200.0.00" from="3" to="7" priority="1" type="driving" shape="5128.78,1303.67 5217.21,1270.32">
        <lane id="-200.0.00_0" index="0" disallow="pedestrian tram rail_urban rail rail_electric rail_fast ship" speed="36.11" length="98.51" width="4.00" acceleration="1" shape="5125.25,1294.31 5217.42,1259.55" type="driving"/>
        <lane id="-200.0.00_1" index="1" disallow="pedestrian tram rail_urban rail rail_electric rail_fast ship" speed="36.11" length="98.51" width="4.00" shape="5126.66,1298.06 5218.83,1263.30" type="driving"/>
        <lane id="-200.0.00_2" index="2" disallow="pedestrian tram rail_urban rail rail_electric rail_fast ship" speed="36.11" length="98.51" width="4.00" shape="5128.07,1301.80 5220.24,1267.04" type="driving"/>
    </edge>
    <edge id="-201.0.00" from="201.begin" to="8" priority="1" type="driving" shape="4567.87,1585.31 4565.02,1584.66 4563.56,1584.33 4561.91,1583.97 4560.10,1583.59 4558.18,1583.19 4556.19,1582.78 4554.15,1582.37 4552.12,1581.96 4550.12,1581.56 4548.20,1581.17 4546.39,1580.81 4544.73,1580.48 4543.26,1580.18 4541.61,1579.84 4539.66,1579.46 4537.99,1579.22 4536.51,1579.09 4534.84,1578.94 4533.01,1578.79 4531.07,1578.64 4529.05,1578.49 4526.99,1578.34 4524.93,1578.19 4522.91,1578.06 4520.96,1577.94 4519.13,1577.83 4517.45,1577.75 4515.97,1577.69 4514.49,1577.67 4512.74,1577.70 4510.84,1577.76 4508.94,1577.86 4507.19,1577.98 4505.72,1578.13 4504.25,1578.31 4502.58,1578.53 4500.76,1578.78 4498.83,1579.06 4496.83,1579.36 4494.79,1579.67 4492.75,1579.99 4490.75,1580.32 4488.83,1580.64 4487.02,1580.95 4485.37,1581.25 4483.91,1581.54 4482.29,1581.90 4480.38,1582.38 4478.31,1582.93 4476.19,1583.53 4474.13,1584.13 4472.25,1584.69 4470.66,1585.16 4469.23,1585.60 4467.61,1586.09 4465.85,1586.63 4463.97,1587.21 4462.03,1587.81 4460.05,1588.43 4458.07,1589.06 4456.13,1589.68 4454.27,1590.29 4452.52,1590.88 4450.92,1591.43 4449.51,1591.93 4417.89,1603.55 4416.48,1604.07 4414.91,1604.68 4413.20,1605.36 4411.38,1606.10 4409.50,1606.87 4407.58,1607.67 4405.67,1608.48 4403.80,1609.29 4402.00,1610.07 4400.32,1610.82 4398.78,1611.52 4397.43,1612.16 4330.58,1644.03 4329.23,1644.68 4327.71,1645.42 4326.06,1646.24 4324.31,1647.12 4322.49,1648.04 4320.64,1648.98 4318.79,1649.93 4316.98,1650.87 4315.25,1651.78 4313.62,1652.64 4312.12,1653.44 4310.81,1654.15 4300.22,1659.96">
        <lane id="-201.0.00_0" index="0" disallow="pedestrian tram rail_urban rail rail_electric rail_fast ship" speed="22.22" length="283.48" width="4.00" shape="4567.43,1587.26 4564.58,1586.61 4563.13,1586.28 4561.49,1585.93 4559.69,1585.55 4557.77,1585.15 4555.79,1584.74 4553.75,1584.33 4551.73,1583.92 4549.72,1583.52 4547.81,1583.13 4546.00,1582.77 4544.34,1582.44 4542.86,1582.14 4541.22,1581.80 4539.32,1581.43 4537.76,1581.21 4536.33,1581.08 4534.67,1580.93 4532.85,1580.78 4530.92,1580.63 4528.90,1580.48 4526.84,1580.33 4524.79,1580.19 4522.78,1580.06 4520.84,1579.94 4519.02,1579.83 4517.36,1579.75 4515.92,1579.69 4514.50,1579.67 4512.79,1579.70 4510.92,1579.76 4509.06,1579.86 4507.36,1579.97 4505.94,1580.12 4504.50,1580.29 4502.85,1580.51 4501.04,1580.76 4499.12,1581.04 4497.13,1581.34 4495.10,1581.65 4493.07,1581.96 4491.08,1582.29 4489.16,1582.61 4487.37,1582.92 4485.74,1583.21 4484.32,1583.50 4482.75,1583.85 4480.88,1584.32 4478.84,1584.86 4476.74,1585.45 4474.69,1586.05 4472.82,1586.61 4471.24,1587.07 4469.81,1587.51 4468.19,1588.00 4466.44,1588.54 4464.56,1589.12 4462.62,1589.72 4460.65,1590.34 4458.68,1590.97 4456.75,1591.58 4454.90,1592.19 4453.16,1592.77 4451.58,1593.32 4450.19,1593.81 4418.58,1605.43 4417.19,1605.94 4415.64,1606.54 4413.95,1607.22 4412.14,1607.95 4410.26,1608.72 4408.36,1609.51 4406.46,1610.32 4404.60,1611.13 4402.80,1611.90 4401.14,1612.64 4399.62,1613.33 4398.29,1613.97 4331.44,1645.84 4330.10,1646.48 4328.59,1647.21 4326.95,1648.03 4325.21,1648.91 4323.39,1649.82 4321.55,1650.76 4319.71,1651.71 4317.91,1652.64 4316.18,1653.55 4314.56,1654.41 4313.07,1655.20 4311.77,1655.90 4301.33,1661.63" type="driving"/>
    </edge>
    <edge id="-203.0.00" from="9" to="5" priority="1" type="driving" shape="5184.54,1286.25 5095.91,1318.82">
        <lane id="-203.0.00_0" index="0" disallow="pedestrian tram rail_urban rail rail_electric rail_fast ship" speed="36.11" length="97.78" width="4.00" shape="5191.14,1294.48 5099.36,1328.21" type="driving"/>
        <lane id="-203.0.00_1" index="1" disallow="pedestrian tram rail_urban rail rail_electric rail_fast ship" speed="36.11" length="97.78" width="4.00" shape="5189.76,1290.72 5097.98,1324.45" type="driving"/>
        <lane id="-203.0.00_2" index="2" disallow="pedestrian tram rail_urban rail rail_electric rail_fast ship" speed="36.11" length="97.78" width="4.00" shape="5188.38,1286.97 5096.60,1320.70" type="driving"/>
    </edge>
    <edge id="-204.0.00" from="5" to="8" priority="1" type="driving" shape="5093.10,1319.85 4941.98,1375.19 4940.58,1375.71 4939.05,1376.28 4937.41,1376.89 4935.67,1377.54 4933.86,1378.23 4931.98,1378.94 4930.05,1379.67 4928.08,1380.42 4926.09,1381.18 4924.09,1381.95 4922.11,1382.71 4920.14,1383.47 4918.22,1384.22 4916.34,1384.94 4914.53,1385.65 4912.81,1386.33 4911.18,1386.97 4909.66,1387.57 4908.27,1388.13 4708.19,1468.40 4706.80,1468.96 4705.29,1469.57 4703.67,1470.23 4701.95,1470.93 4700.16,1471.67 4698.30,1472.44 4696.39,1473.23 4694.44,1474.03 4692.48,1474.85 4690.50,1475.67 4688.54,1476.49 4686.60,1477.30 4684.69,1478.10 4682.84,1478.88 4681.05,1479.64 4679.34,1480.36 4677.73,1481.05 4676.23,1481.69 4674.86,1482.28 4470.12,1570.70 4468.75,1571.30 4467.25,1571.95 4465.65,1572.66 4463.96,1573.41 4462.19,1574.20 4460.35,1575.02 4458.47,1575.87 4456.55,1576.73 4454.61,1577.61 4452.66,1578.50 4450.73,1579.38 4448.81,1580.26 4446.94,1581.12 4445.11,1581.97 4443.35,1582.78 4441.67,1583.57 4440.09,1584.31 4438.61,1585.00 4437.26,1585.65 4297.01,1652.73">
        <lane id="-204.0.00_0" index="0" disallow="pedestrian tram rail_urban rail rail_electric rail_fast ship" speed="36.11" length="862.29" width="4.00" shape="5094.72,1325.65 4944.04,1380.82 4942.67,1381.33 4941.14,1381.90 4939.51,1382.51 4937.79,1383.15 4935.99,1383.84 4934.10,1384.55 4932.18,1385.28 4930.22,1386.03 4928.24,1386.78 4926.24,1387.55 4924.26,1388.31 4922.31,1389.06 4920.38,1389.82 4918.51,1390.53 4916.73,1391.23 4915.01,1391.91 4913.38,1392.55 4911.88,1393.14 4910.51,1393.70 4710.42,1473.97 4709.04,1474.52 4707.55,1475.13 4705.93,1475.79 4704.23,1476.48 4702.45,1477.21 4700.59,1477.98 4698.68,1478.78 4696.74,1479.57 4694.79,1480.39 4692.81,1481.21 4690.85,1482.03 4688.91,1482.84 4687.01,1483.63 4685.18,1484.41 4683.39,1485.17 4681.69,1485.88 4680.09,1486.57 4678.59,1487.20 4677.24,1487.79 4472.50,1576.21 4471.15,1576.80 4469.66,1577.44 4468.08,1578.14 4466.40,1578.89 4464.63,1579.68 4462.81,1580.49 4460.93,1581.34 4459.02,1582.20 4457.09,1583.07 4455.15,1583.96 4453.22,1584.84 4451.31,1585.71 4449.46,1586.57 4447.63,1587.42 4445.88,1588.22 4444.22,1589.00 4442.63,1589.75 4441.18,1590.42 4439.86,1591.06 4299.75,1658.07" type="driving"/>