<?xml version="1.0" encoding="UTF-8"?>

<!-- generated on 2022-02-21 11:24:16 by Eclipse SUMO netedit Version 1.11.0
<configuration xmlns:xsi="http://www.w3.org/2001/XMLSchema-instance" xsi:noNamespaceSchemaLocation="http://sumo.dlr.de/xsd/netconvertConfiguration.xsd">

    <input>
        <sumo-net-file value="D:\script_carla\map_net_xml\campus_irit_map.net.xml"/>
    </input>

    <output>
        <output-file value="D:\script_carla\map_net_xml\campus_irit_map.net.xml"/>
    </output>

    <processing>
        <geometry.min-radius.fix.railways value="false"/>
        <geometry.max-grade.fix value="false"/>
        <offset.disable-normalization value="true"/>
        <lefthand value="false"/>
    </processing>

    <junctions>
        <no-turnarounds value="true"/>
        <junctions.corner-detail value="5"/>
        <junctions.limit-turn-speed value="5.5"/>
        <rectangular-lane-cut value="true"/>
    </junctions>

    <pedestrian>
        <walkingareas value="false"/>
    </pedestrian>

    <report>
        <aggregate-warnings value="5"/>
    </report>

</configuration>
-->

<net version="1.9" junctionCornerDetail="5" rectangularLaneCut="true" limitTurnSpeed="5.50" xmlns:xsi="http://www.w3.org/2001/XMLSchema-instance" xsi:noNamespaceSchemaLocation="http://sumo.dlr.de/xsd/net_file.xsd">

    <location netOffset="0.00,0.00" convBoundary="0.00,0.00,1381.63,1921.38" origBoundary="0.00,-3.89,1381.63,1921.38" projParameter="!"/>

    <type id="bidirectional" priority="1" speed="1.39" disallow="pedestrian tram rail_urban rail rail_electric rail_fast ship" width="3.65"/>
    <type id="biking" priority="-1" speed="5.56" allow="bicycle" width="1.50"/>
    <type id="border" priority="0" speed="1.39" disallow="all" discard="1" width="0.10"/>
    <type id="driving" priority="1" speed="13.89" disallow="pedestrian tram rail_urban rail rail_electric rail_fast ship" width="3.65"/>
    <type id="entry" priority="1" speed="22.22" disallow="pedestrian tram rail_urban rail rail_electric rail_fast ship" width="3.65"/>
    <type id="exit" priority="1" speed="22.22" disallow="pedestrian tram rail_urban rail rail_electric rail_fast ship" width="3.65"/>
    <type id="median" priority="0" speed="1.39" disallow="all" discard="1" width="0.10"/>
    <type id="mwyEntry" priority="1" speed="22.22" allow="private emergency authority army vip passenger hov taxi bus coach delivery truck trailer motorcycle evehicle custom1 custom2" width="3.65"/>
    <type id="mwyExit" priority="1" speed="22.22" allow="private emergency authority army vip passenger hov taxi bus coach delivery truck trailer motorcycle evehicle custom1 custom2" width="3.65"/>
    <type id="none" priority="0" speed="1.39" disallow="all" discard="1" width="1.00"/>
    <type id="offRamp" priority="1" speed="22.22" allow="private emergency authority army vip passenger hov taxi bus coach delivery truck trailer motorcycle evehicle custom1 custom2" width="3.65"/>
    <type id="onRamp" priority="1" speed="22.22" allow="private emergency authority army vip passenger hov taxi bus coach delivery truck trailer motorcycle evehicle custom1 custom2" width="3.65"/>
    <type id="parking" priority="1" speed="1.39" disallow="pedestrian tram rail_urban rail rail_electric rail_fast ship" width="2.50"/>
    <type id="rail" priority="3" speed="33.33" allow="rail_urban rail rail_electric rail_fast" width="3.65"/>
    <type id="restricted" priority="0" speed="13.89" disallow="all" width="3.65"/>
    <type id="roadWorks" priority="0" speed="1.39" allow="authority" width="3.65"/>
    <type id="shoulder" priority="0" speed="1.39" disallow="all" discard="1" width="1.00"/>
    <type id="sidewalk" priority="-2" speed="2.78" allow="pedestrian" width="2.50"/>
    <type id="special1" priority="1" speed="22.22" allow="custom1" discard="1" width="3.65"/>
    <type id="special2" priority="1" speed="22.22" allow="custom2" discard="1" width="3.65"/>
    <type id="special3" priority="1" speed="22.22" allow="custom1 custom2" discard="1" width="3.65"/>
    <type id="stop" priority="1" speed="13.89" disallow="pedestrian tram rail_urban rail rail_electric rail_fast ship" width="3.65"/>
    <type id="tram" priority="2" speed="13.89" allow="tram" width="3.65"/>

    <edge id=":1_0" function="internal">
        <lane id=":1_0_0" index="0" disallow="pedestrian tram rail_urban rail rail_electric rail_fast ship" speed="6.78" length="9.69" width="4.00" shape="698.14,815.53 695.79,814.28 693.62,814.08 691.61,814.94 689.76,816.85">
            <param key="origId" value="2275_-1"/>
        </lane>
    </edge>
    <edge id=":1_1" function="internal">
        <lane id=":1_1_0" index="0" disallow="pedestrian tram rail_urban rail rail_electric rail_fast ship" speed="8.33" length="16.25" width="4.00" shape="698.14,815.53 685.07,805.86">
            <param key="origId" value="2276_-1"/>
        </lane>
    </edge>
    <edge id=":1_2" function="internal">
        <lane id=":1_2_0" index="0" disallow="pedestrian tram rail_urban rail rail_electric rail_fast ship" speed="4.08" length="2.92" width="4.00" shape="698.14,815.53 697.52,813.84 697.71,812.74">
            <param key="origId" value="2277_-1"/>
        </lane>
    </edge>
    <edge id=":1_9" function="internal">
        <lane id=":1_9_0" index="0" disallow="pedestrian tram rail_urban rail rail_electric rail_fast ship" speed="4.08" length="2.92" width="4.00" shape="697.71,812.74 698.70,812.23 700.50,812.31">
            <param key="origId" value="2277_-1"/>
        </lane>
    </edge>
    <edge id=":1_3" function="internal">
        <lane id=":1_3_0" index="0" disallow="pedestrian tram rail_urban rail rail_electric rail_fast ship" speed="8.33" length="15.96" width="4.00" shape="687.67,802.81 700.50,812.31">
            <param key="origId" value="2278_-1"/>
        </lane>
    </edge>
    <edge id=":1_4" function="internal">
        <lane id=":1_4_0" index="0" disallow="pedestrian tram rail_urban rail rail_electric rail_fast ship" speed="8.33" length="7.02" width="4.00" shape="687.67,802.81 690.78,805.91 691.79,808.35">
            <param key="origId" value="2279_-1"/>
        </lane>
    </edge>
    <edge id=":1_5" function="internal">
        <lane id=":1_5_0" index="0" disallow="pedestrian tram rail_urban rail rail_electric rail_fast ship" speed="4.09" length="2.78" width="4.00" shape="687.67,802.81 688.17,804.55 687.93,805.50">
            <param key="origId" value="2280_-1"/>
        </lane>
    </edge>
    <edge id=":1_10" function="internal">
        <lane id=":1_10_0" index="0" disallow="pedestrian tram rail_urban rail rail_electric rail_fast ship" speed="8.33" length="9.11" width="4.00" shape="691.79,808.35 692.17,809.28 691.83,812.93 689.76,816.85">
            <param key="origId" value="2279_-1"/>
        </lane>
    </edge>
    <edge id=":1_11" function="internal">
        <lane id=":1_11_0" index="0" disallow="pedestrian tram rail_urban rail rail_electric rail_fast ship" speed="4.09" length="3.08" width="4.00" shape="687.93,805.50 687.90,805.64 686.87,806.08 685.07,805.86">
            <param key="origId" value="2280_-1"/>
        </lane>
    </edge>
    <edge id=":1_6" function="internal">
        <lane id=":1_6_0" index="0" disallow="pedestrian tram rail_urban rail rail_electric rail_fast ship" speed="6.92" length="9.96" width="4.00" shape="686.52,814.51 687.76,812.12 687.93,809.89 687.03,807.80 685.07,805.86">
            <param key="origId" value="2281_-1"/>
        </lane>
    </edge>
    <edge id=":1_7" function="internal">
        <lane id=":1_7_0" index="0" disallow="pedestrian tram rail_urban rail rail_electric rail_fast ship" speed="8.33" length="16.18" width="4.00" shape="686.52,814.51 689.60,811.31 692.96,809.88 696.59,810.21 700.50,812.31">
            <param key="origId" value="2282_-1"/>
        </lane>
    </edge>
    <edge id=":1_8" function="internal">
        <lane id=":1_8_0" index="0" disallow="pedestrian tram rail_urban rail rail_electric rail_fast ship" speed="4.08" length="5.84" width="4.00" shape="686.52,814.51 688.21,813.88 689.31,814.06 689.83,815.05 689.76,816.85">
            <param key="origId" value="2283_-1"/>
        </lane>
    </edge>
    <edge id=":10_0" function="internal">
        <lane id=":10_0_0" index="0" disallow="pedestrian tram rail_urban rail rail_electric rail_fast ship" speed="6.88" length="9.94" width="4.00" shape="877.44,1271.11 875.11,1269.83 872.90,1269.64 870.80,1270.53 868.83,1272.50">
            <param key="origId" value="2514_-1"/>
        </lane>
    </edge>
    <edge id=":10_1" function="internal">
        <lane id=":10_1_0" index="0" disallow="pedestrian tram rail_urban rail rail_electric rail_fast ship" speed="13.89" length="16.28" width="4.00" shape="877.44,1271.11 864.25,1261.56">
            <param key="origId" value="2515_-1"/>
        </lane>
    </edge>
    <edge id=":10_2" function="internal">
        <lane id=":10_2_0" index="0" disallow="pedestrian tram rail_urban rail rail_electric rail_fast ship" speed="8.43" length="5.43" width="4.00" shape="877.44,1271.11 875.12,1268.25 874.59,1266.58">
            <param key="origId" value="2516_-1"/>
        </lane>
    </edge>
    <edge id=":10_3" function="internal">
        <lane id=":10_3_0" index="0" disallow="pedestrian tram rail_urban rail rail_electric rail_fast ship" speed="4.08" length="2.82" width="4.00" shape="877.44,1271.11 876.89,1269.39 877.10,1268.40">
            <param key="origId" value="2517_-1"/>
        </lane>
    </edge>
    <edge id=":10_16" function="internal">
        <lane id=":10_16_0" index="0" disallow="pedestrian tram rail_urban rail rail_electric rail_fast ship" speed="8.43" length="9.86" width="4.00" shape="874.59,1266.58 873.91,1264.46 873.92,1260.49 875.28,1257.09">
            <param key="origId" value="2516_-1"/>
        </lane>
    </edge>
    <edge id=":10_17" function="internal">
        <lane id=":10_17_0" index="0" disallow="pedestrian tram rail_urban rail rail_electric rail_fast ship" speed="4.08" length="3.02" width="4.00" shape="877.10,1268.40 877.12,1268.30 878.13,1267.83 879.93,1267.98">
            <param key="origId" value="2517_-1"/>
        </lane>
    </edge>
    <edge id=":10_4" function="internal">
        <lane id=":10_4_0" index="0" disallow="pedestrian tram rail_urban rail rail_electric rail_fast ship" speed="6.90" length="9.82" width="4.00" shape="878.52,1259.43 877.30,1261.77 877.13,1263.98 878.01,1266.05 879.93,1267.98">
            <param key="origId" value="2518_-1"/>
        </lane>
    </edge>
    <edge id=":10_5" function="internal">
        <lane id=":10_5_0" index="0" disallow="pedestrian tram rail_urban rail rail_electric rail_fast ship" speed="8.33" length="16.27" width="4.00" shape="878.52,1259.43 868.83,1272.50">
            <param key="origId" value="2519_-1"/>
        </lane>
    </edge>
    <edge id=":10_6" function="internal">
        <lane id=":10_6_0" index="0" disallow="pedestrian tram rail_urban rail rail_electric rail_fast ship" speed="8.41" length="15.59" width="4.00" shape="878.52,1259.43 875.65,1261.81 871.79,1263.02 867.72,1262.98 864.25,1261.56">
            <param key="origId" value="2520_-1"/>
        </lane>
    </edge>
    <edge id=":10_7" function="internal">
        <lane id=":10_7_0" index="0" disallow="pedestrian tram rail_urban rail rail_electric rail_fast ship" speed="4.08" length="5.84" width="4.00" shape="878.52,1259.43 876.83,1260.06 875.73,1259.88 875.21,1258.89 875.28,1257.09">
            <param key="origId" value="2521_-1"/>
        </lane>
    </edge>
    <edge id=":10_8" function="internal">
        <lane id=":10_8_0" index="0" disallow="pedestrian tram rail_urban rail rail_electric rail_fast ship" speed="6.88" length="10.00" width="4.00" shape="866.61,1258.34 869.06,1259.65 871.32,1259.88 873.39,1259.03 875.28,1257.09">
            <param key="origId" value="2522_-1"/>
        </lane>
    </edge>
    <edge id=":10_9" function="internal">
        <lane id=":10_9_0" index="0" disallow="pedestrian tram rail_urban rail rail_electric rail_fast ship" speed="13.89" length="16.44" width="4.00" shape="866.61,1258.34 879.93,1267.98">
            <param key="origId" value="2523_-1"/>
        </lane>
    </edge>
    <edge id=":10_10" function="internal">
        <lane id=":10_10_0" index="0" disallow="pedestrian tram rail_urban rail rail_electric rail_fast ship" speed="8.34" length="5.56" width="4.00" shape="866.61,1258.34 868.99,1261.20 869.56,1262.94">
            <param key="origId" value="2524_-1"/>
        </lane>
    </edge>
    <edge id=":10_11" function="internal">
        <lane id=":10_11_0" index="0" disallow="pedestrian tram rail_urban rail rail_electric rail_fast ship" speed="4.08" length="2.92" width="4.00" shape="866.61,1258.34 867.23,1260.03 867.04,1261.13">
            <param key="origId" value="2525_-1"/>
        </lane>
    </edge>
    <edge id=":10_18" function="internal">
        <lane id=":10_18_0" index="0" disallow="pedestrian tram rail_urban rail rail_electric rail_fast ship" speed="8.34" length="9.95" width="4.00" shape="869.56,1262.94 870.25,1265.05 870.25,1269.08 868.83,1272.50">
            <param key="origId" value="2524_-1"/>
        </lane>
    </edge>
    <edge id=":10_19" function="internal">
        <lane id=":10_19_0" index="0" disallow="pedestrian tram rail_urban rail rail_electric rail_fast ship" speed="4.08" length="2.92" width="4.00" shape="867.04,1261.13 866.05,1261.64 864.25,1261.56">
            <param key="origId" value="2525_-1"/>
        </lane>
    </edge>
    <edge id=":10_12" function="internal">
        <lane id=":10_12_0" index="0" disallow="pedestrian tram rail_urban rail rail_electric rail_fast ship" speed="6.81" length="9.88" width="4.00" shape="865.65,1270.07 866.94,1267.74 867.13,1265.54 866.24,1263.49 864.25,1261.56">
            <param key="origId" value="2526_-1"/>
        </lane>
    </edge>
    <edge id=":10_13" function="internal">
        <lane id=":10_13_0" index="0" disallow="pedestrian tram rail_urban rail rail_electric rail_fast ship" speed="8.33" length="16.16" width="4.00" shape="865.65,1270.07 875.28,1257.09">
            <param key="origId" value="2527_-1"/>
        </lane>
    </edge>
    <edge id=":10_14" function="internal">
        <lane id=":10_14_0" index="0" disallow="pedestrian tram rail_urban rail rail_electric rail_fast ship" speed="8.43" length="15.59" width="4.00" shape="865.65,1270.07 868.57,1267.72 872.45,1266.50 876.50,1266.54 879.93,1267.98">
            <param key="origId" value="2528_-1"/>
        </lane>
    </edge>
    <edge id=":10_15" function="internal">
        <lane id=":10_15_0" index="0" disallow="pedestrian tram rail_urban rail rail_electric rail_fast ship" speed="4.08" length="5.84" width="4.00" shape="865.65,1270.07 867.35,1269.49 868.45,1269.70 868.94,1270.70 868.83,1272.50">
            <param key="origId" value="2529_-1"/>
        </lane>
    </edge>
    <edge id=":100_0" function="internal">
        <lane id=":100_0_0" index="0" disallow="pedestrian tram rail_urban rail rail_electric rail_fast ship" speed="8.33" length="11.35" width="4.00" shape="1072.74,585.18 1070.81,582.64 1069.32,580.63 1067.65,578.79 1065.22,576.77">
            <param key="origId" value="2304_-1"/>
        </lane>
    </edge>
    <edge id=":100_1" function="internal">
        <lane id=":100_1_0" index="0" disallow="pedestrian tram rail_urban rail rail_electric rail_fast ship" speed="8.04" length="11.46" width="4.00" shape="1072.74,585.18 1072.12,583.49 1072.49,581.21 1073.86,578.35 1076.22,574.91">
            <param key="origId" value="2305_-1"/>
        </lane>
    </edge>
    <edge id=":100_2" function="internal">
        <lane id=":100_2_0" index="0" disallow="pedestrian tram rail_urban rail rail_electric rail_fast ship" speed="7.72" length="7.09" width="4.00" shape="1079.40,577.33 1078.08,579.28 1077.25,581.00 1076.91,582.50 1077.06,583.78">
            <param key="origId" value="2306_-1"/>
        </lane>
    </edge>
    <edge id=":100_3" function="internal">
        <lane id=":100_3_0" index="0" disallow="pedestrian tram rail_urban rail rail_electric rail_fast ship" speed="8.33" length="5.00" width="4.00" shape="1079.40,577.33 1076.69,579.68 1075.30,579.97">
            <param key="origId" value="2307_-1"/>
        </lane>
    </edge>
    <edge id=":100_4" function="internal">
        <lane id=":100_4_0" index="0" disallow="pedestrian tram rail_urban rail rail_electric rail_fast ship" speed="4.08" length="2.80" width="4.00" shape="1079.40,577.33 1077.69,577.92 1076.71,577.73">
            <param key="origId" value="2308_-1"/>
        </lane>
    </edge>
    <edge id=":100_5" function="internal">
        <lane id=":100_5_0" index="0" disallow="pedestrian tram rail_urban rail rail_electric rail_fast ship" speed="8.33" length="10.97" width="4.00" shape="1075.30,579.97 1073.43,580.37 1069.60,579.39 1065.22,576.77">
            <param key="origId" value="2307_-1"/>
        </lane>
    </edge>
    <edge id=":100_6" function="internal">
        <lane id=":100_6_0" index="0" disallow="pedestrian tram rail_urban rail rail_electric rail_fast ship" speed="4.08" length="3.04" width="4.00" shape="1076.71,577.73 1076.60,577.71 1076.10,576.70 1076.22,574.91">
            <param key="origId" value="2308_-1"/>
        </lane>
    </edge>
    <edge id=":101_0" function="internal">
        <lane id=":101_0_0" index="0" disallow="pedestrian tram rail_urban rail rail_electric rail_fast ship" speed="4.08" length="5.84" width="4.00" shape="1079.53,587.25 1079.68,589.04 1079.21,590.06 1078.12,590.29 1076.40,589.74"/>
    </edge>
    <edge id=":102_0" function="internal">
        <lane id=":102_0_0" index="0" disallow="pedestrian tram rail_urban rail rail_electric rail_fast ship" speed="8.33" length="12.00" width="4.00" shape="1109.31,536.91 1102.21,546.58">
            <param key="origId" value="2675_-1"/>
        </lane>
    </edge>
    <edge id=":102_1" function="internal">
        <lane id=":102_1_0" index="0" disallow="pedestrian tram rail_urban rail rail_electric rail_fast ship" speed="6.78" length="9.67" width="4.00" shape="1097.71,535.80 1100.05,537.06 1102.22,537.28 1104.23,536.44 1106.09,534.55">
            <param key="origId" value="2676_-1"/>
        </lane>
    </edge>
    <edge id=":102_2" function="internal">
        <lane id=":102_2_0" index="0" disallow="pedestrian tram rail_urban rail rail_electric rail_fast ship" speed="7.79" length="13.07" width="4.00" shape="1097.71,535.80 1101.01,538.71 1102.85,541.48 1103.26,544.11 1102.21,546.58">
            <param key="origId" value="2677_-1"/>
        </lane>
    </edge>
    <edge id=":102_3" function="internal">
        <lane id=":102_3_0" index="0" disallow="pedestrian tram rail_urban rail rail_electric rail_fast ship" speed="8.33" length="12.00" width="4.00" shape="1098.99,544.22 1106.09,534.55">
            <param key="origId" value="2678_-1"/>
        </lane>
    </edge>
    <edge id=":102_4" function="internal">
        <lane id=":102_4_0" index="0" disallow="pedestrian tram rail_urban rail rail_electric rail_fast ship" speed="4.08" length="2.92" width="4.00" shape="1098.99,544.22 1100.68,543.60 1101.78,543.79">
            <param key="origId" value="2679_-1"/>
        </lane>
    </edge>
    <edge id=":102_5" function="internal">
        <lane id=":102_5_0" index="0" disallow="pedestrian tram rail_urban rail rail_electric rail_fast ship" speed="4.08" length="2.92" width="4.00" shape="1101.78,543.79 1102.29,544.78 1102.21,546.58">
            <param key="origId" value="2679_-1"/>
        </lane>
    </edge>
    <edge id=":103_0" function="internal">
        <lane id=":103_0_0" index="0" disallow="pedestrian tram rail_urban rail rail_electric rail_fast ship" speed="4.08" length="5.84" width="4.00" shape="506.80,1909.05 506.54,1907.26 506.95,1906.22 508.03,1905.93 509.78,1906.37"/>
    </edge>
    <edge id=":104_0" function="internal">
        <lane id=":104_0_0" index="0" disallow="pedestrian tram rail_urban rail rail_electric rail_fast ship" speed="7.33" length="9.62" width="4.00" shape="821.72,1366.24 819.39,1365.14 817.16,1364.92 815.02,1365.58 812.98,1367.12">
            <param key="origId" value="2209_-1"/>
        </lane>
    </edge>
    <edge id=":104_1" function="internal">
        <lane id=":104_1_0" index="0" disallow="pedestrian tram rail_urban rail rail_electric rail_fast ship" speed="6.81" length="9.23" width="4.00" shape="821.92,1354.91 821.01,1357.25 821.04,1359.36 822.00,1361.24 823.90,1362.88">
            <param key="origId" value="2210_-1"/>
        </lane>
    </edge>
    <edge id=":104_2" function="internal">
        <lane id=":104_2_0" index="0" disallow="pedestrian tram rail_urban rail rail_electric rail_fast ship" speed="8.33" length="15.17" width="4.00" shape="821.92,1354.91 819.99,1358.17 817.86,1361.33 815.53,1364.34 812.98,1367.12">
            <param key="origId" value="2211_-1"/>
        </lane>
    </edge>
    <edge id=":105_0" function="internal">
        <lane id=":105_0_0" index="0" disallow="pedestrian tram rail_urban rail rail_electric rail_fast ship" speed="15.27" length="10.66" width="4.00" shape="842.21,1311.23 840.48,1313.77 839.16,1315.62 837.97,1317.53 836.60,1320.27">
            <param key="origId" value="2216_-1"/>
        </lane>
    </edge>
    <edge id=":105_1" function="internal">
        <lane id=":105_1_0" index="0" disallow="pedestrian tram rail_urban rail rail_electric rail_fast ship" speed="4.08" length="3.02" width="4.00" shape="842.21,1311.23 840.56,1311.94 839.45,1311.81 839.39,1311.72">
            <param key="origId" value="2217_-1"/>
        </lane>
    </edge>
    <edge id=":105_4" function="internal">
        <lane id=":105_4_0" index="0" disallow="pedestrian tram rail_urban rail rail_electric rail_fast ship" speed="4.08" length="2.82" width="4.00" shape="839.39,1311.72 838.88,1310.85 838.87,1309.05">
            <param key="origId" value="2217_-1"/>
        </lane>
    </edge>
    <edge id=":105_2" function="internal">
        <lane id=":105_2_0" index="0" disallow="pedestrian tram rail_urban rail rail_electric rail_fast ship" speed="15.27" length="5.32" width="4.00" shape="835.14,1312.77 836.38,1311.80 837.23,1311.12 837.96,1310.33 838.87,1309.05">
            <param key="origId" value="2218_-1"/>
        </lane>
    </edge>
    <edge id=":105_3" function="internal">
        <lane id=":105_3_0" index="0" disallow="pedestrian tram rail_urban rail rail_electric rail_fast ship" speed="6.15" length="5.35" width="4.00" shape="835.14,1312.77 838.14,1310.89 839.39,1311.51 839.33,1311.91">
            <param key="origId" value="2219_-1"/>
        </lane>
    </edge>
    <edge id=":105_5" function="internal">
        <lane id=":105_5_0" index="0" disallow="pedestrian tram rail_urban rail rail_electric rail_fast ship" speed="6.15" length="8.84" width="4.00" shape="839.33,1311.91 838.88,1314.64 836.60,1320.27">
            <param key="origId" value="2219_-1"/>
        </lane>
    </edge>
    <edge id=":106_0" function="internal">
        <lane id=":106_0_0" index="0" disallow="pedestrian tram rail_urban rail rail_electric rail_fast ship" speed="7.37" length="10.19" width="4.00" shape="793.36,1339.79 795.87,1341.11 798.25,1341.45 800.48,1340.82 802.57,1339.22">
            <param key="origId" value="2202_-1"/>
        </lane>
    </edge>
    <edge id=":106_1" function="internal">
        <lane id=":106_1_0" index="0" disallow="pedestrian tram rail_urban rail rail_electric rail_fast ship" speed="6.80" length="9.76" width="4.00" shape="792.60,1351.47 793.82,1349.11 793.97,1346.92 793.05,1344.91 791.08,1343.07">
            <param key="origId" value="2203_-1"/>
        </lane>
    </edge>
    <edge id=":106_2" function="internal">
        <lane id=":106_2_0" index="0" disallow="pedestrian tram rail_urban rail rail_electric rail_fast ship" speed="22.22" length="15.81" width="4.00" shape="792.60,1351.47 794.89,1348.34 797.37,1345.16 799.96,1342.08 802.57,1339.22">
            <param key="origId" value="2204_-1"/>
        </lane>
    </edge>
    <edge id=":107_0" function="internal">
        <lane id=":107_0_0" index="0" disallow="pedestrian tram rail_urban rail rail_electric rail_fast ship" speed="7.05" length="15.40" width="4.00" shape="316.85,987.60 313.95,982.67 311.24,980.27 308.73,980.42 306.41,983.11">
            <param key="origId" value="2699_-1"/>
        </lane>
    </edge>
    <edge id=":107_1" function="internal">
        <lane id=":107_1_0" index="0" disallow="pedestrian tram rail_urban rail rail_electric rail_fast ship" speed="17.11" length="18.42" width="4.00" shape="316.85,987.60 315.03,984.34 312.55,981.22 308.99,978.12 303.94,974.93">
            <param key="origId" value="2700_-1"/>
        </lane>
        <lane id=":107_1_1" index="1" disallow="pedestrian tram rail_urban rail rail_electric rail_fast ship" speed="17.85" length="20.08" width="4.00" shape="316.85,987.60 315.42,983.84 313.75,979.60 310.89,975.32 305.87,971.43">
            <param key="origId" value="2701_-1"/>
        </lane>
    </edge>
    <edge id=":107_3" function="internal">
        <lane id=":107_3_0" index="0" disallow="pedestrian tram rail_urban rail rail_electric rail_fast ship" speed="18.05" length="31.15" width="4.00" shape="329.96,950.21 327.63,958.33 324.78,967.04 322.53,974.85 322.03,980.24">
            <param key="origId" value="2702_-1"/>
        </lane>
    </edge>
    <edge id=":107_4" function="internal">
        <lane id=":107_4_0" index="0" disallow="pedestrian tram rail_urban rail rail_electric rail_fast ship" speed="13.89" length="40.63" width="4.00" shape="329.96,950.21 325.67,958.85 318.26,968.68 310.81,977.50 306.41,983.11">
            <param key="origId" value="2703_-1"/>
        </lane>
    </edge>
    <edge id=":107_5" function="internal">
        <lane id=":107_5_0" index="0" disallow="pedestrian tram rail_urban rail rail_electric rail_fast ship" speed="10.63" length="30.99" width="4.00" shape="326.07,949.31 323.28,958.97 319.57,966.05 314.54,969.41 307.80,967.93">
            <param key="origId" value="2704_-1"/>
        </lane>
        <lane id=":107_5_1" index="1" disallow="pedestrian tram rail_urban rail rail_electric rail_fast ship" speed="9.92" length="26.79" width="4.00" shape="326.07,949.31 323.67,957.49 320.41,963.35 315.89,965.97 309.74,964.43">
            <param key="origId" value="2705_-1"/>
        </lane>
    </edge>
    <edge id=":107_7" function="internal">
        <lane id=":107_7_0" index="0" disallow="pedestrian tram rail_urban rail rail_electric rail_fast ship" speed="15.61" length="28.82" width="4.00" shape="316.79,951.92 317.96,956.39 319.67,965.87 321.25,975.46 322.03,980.24">
            <param key="origId" value="2706_-1"/>
        </lane>
    </edge>
    <edge id=":107_8" function="internal">
        <lane id=":107_8_0" index="0" disallow="pedestrian tram rail_urban rail rail_electric rail_fast ship" speed="11.22" length="30.11" width="4.00" shape="315.08,955.54 316.54,958.21 315.59,963.70 312.21,972.00 306.41,983.11">
            <param key="origId" value="2707_-1"/>
        </lane>
    </edge>
    <edge id=":107_9" function="internal">
        <lane id=":107_9_0" index="0" disallow="pedestrian tram rail_urban rail rail_electric rail_fast ship" speed="3.57" length="3.69" width="4.00" shape="311.65,962.76 311.79,963.89 311.52,964.55 310.84,964.73 309.74,964.43">
            <param key="origId" value="2708_-1"/>
        </lane>
    </edge>
    <edge id=":108_0" function="internal">
        <lane id=":108_0_0" index="0" disallow="pedestrian tram rail_urban rail rail_electric rail_fast ship" speed="18.05" length="3.03" width="4.00" shape="292.10,1012.05 290.28,1014.48">
            <param key="origId" value="2322_-1"/>
        </lane>
    </edge>
    <edge id=":108_1" function="internal">
        <lane id=":108_1_0" index="0" disallow="pedestrian tram rail_urban rail rail_electric rail_fast ship" speed="13.89" length="2.77" width="4.00" shape="288.76,1009.80 287.12,1012.03">
            <param key="origId" value="2323_-1"/>
        </lane>
    </edge>
    <edge id=":109_0" function="internal">
        <lane id=":109_0_0" index="0" disallow="pedestrian tram rail_urban rail rail_electric rail_fast ship" speed="13.89" length="17.28" width="4.00" shape="405.84,664.62 408.48,662.07 411.41,659.62 414.27,656.39 416.70,651.48">
            <param key="origId" value="2474_-1"/>
        </lane>
    </edge>
    <edge id=":109_1" function="internal">
        <lane id=":109_1_0" index="0" disallow="pedestrian tram rail_urban rail rail_electric rail_fast ship" speed="8.86" length="13.83" width="4.00" shape="405.84,664.62 408.36,662.36 411.30,661.25 414.66,661.29 418.42,662.48">
            <param key="origId" value="2475_-1"/>
        </lane>
    </edge>
    <edge id=":109_2" function="internal">
        <lane id=":109_2_0" index="0" disallow="pedestrian tram rail_urban rail rail_electric rail_fast ship" speed="13.89" length="17.37" width="4.00" shape="410.59,667.61 416.70,651.48">
            <param key="origId" value="2476_-2"/>
        </lane>
        <lane id=":109_2_1" index="1" disallow="pedestrian tram rail_urban rail rail_electric rail_fast ship" speed="13.89" length="17.37" width="4.00" shape="414.28,669.16 420.48,652.79">
            <param key="origId" value="2476_-1"/>
        </lane>
    </edge>
    <edge id=":109_4" function="internal">
        <lane id=":109_4_0" index="0" disallow="pedestrian tram rail_urban rail rail_electric rail_fast ship" speed="6.23" length="8.07" width="4.00" shape="414.28,669.16 415.67,666.05 416.82,663.90 417.74,662.71 418.42,662.48">
            <param key="origId" value="2477_-1"/>
        </lane>
    </edge>
    <edge id=":11_0" function="internal">
        <lane id=":11_0_0" index="0" disallow="pedestrian tram rail_urban rail rail_electric rail_fast ship" speed="15.27" length="5.74" width="4.00" shape="955.62,1158.14 954.25,1159.12 953.40,1159.92 952.68,1160.86 951.66,1162.22">
            <param key="origId" value="2212_-1"/>