<?xml version="1.0" encoding="UTF-8"?>

<!-- generated on 2022-02-16 16:03:01 by Eclipse SUMO netconvert Version 1.11.0
<configuration xmlns:xsi="http://www.w3.org/2001/XMLSchema-instance" xsi:noNamespaceSchemaLocation="http://sumo.dlr.de/xsd/netconvertConfiguration.xsd">

    <input>
        <opendrive-files value="./map_xodr/insertions_autoroute.xodr"/>
    </input>

    <output>
        <output-file value="./map_net_xml/insertions_autoroute.net.xml"/>
    </output>

    <processing>
        <geometry.max-grade.fix value="false"/>
    </processing>

    <tls_building>
        <tls.left-green.time value="0"/>
    </tls_building>

    <junctions>
        <rectangular-lane-cut value="true"/>
    </junctions>

    <report>
        <aggregate-warnings value="5"/>
    </report>

</configuration>
-->

<net version="1.9" junctionCornerDetail="5" rectangularLaneCut="true" limitTurnSpeed="5.50" xmlns:xsi="http://www.w3.org/2001/XMLSchema-instance" xsi:noNamespaceSchemaLocation="http://sumo.dlr.de/xsd/net_file.xsd">

    <location netOffset="4.84,-4.13" convBoundary="0.00,0.00,4376.88,3774.48" origBoundary="-4.84,4.13,4372.04,3778.61" projParameter="!"/>

    <type id="bidirectional" priority="1" speed="1.39" disallow="pedestrian tram rail_urban rail rail_electric rail_fast ship" width="3.65"/>
    <type id="border" priority="0" speed="1.39" disallow="all" discard="1" width="0.10"/>
    <type id="driving" priority="1" speed="13.89" disallow="pedestrian tram rail_urban rail rail_electric rail_fast ship" width="3.65"/>
    <type id="entry" priority="1" speed="22.22" disallow="pedestrian tram rail_urban rail rail_electric rail_fast ship" width="3.65"/>
    <type id="exit" priority="1" speed="22.22" disallow="pedestrian tram rail_urban rail rail_electric rail_fast ship" width="3.65"/>
    <type id="median" priority="0" speed="1.39" disallow="all" discard="1" width="0.10"/>
    <type id="mwyEntry" priority="1" speed="22.22" allow="private emergency authority army vip passenger hov taxi bus coach delivery truck trailer motorcycle evehicle custom1 custom2" width="3.65"/>
    <type id="mwyExit" priority="1" speed="22.22" allow="private emergency authority army vip passenger hov taxi bus coach delivery truck trailer motorcycle evehicle custom1 custom2" width="3.65"/>
    <type id="none" priority="0" speed="1.39" disallow="all" discard="1" width="1.00"/>
    <type id="offRamp" priority="1" speed="22.22" allow="private emergency authority army vip passenger hov taxi bus coach delivery truck trailer motorcycle evehicle custom1 custom2" width="3.65"/>
    <type id="onRamp" priority="1" speed="22.22" allow="private emergency authority army vip passenger hov taxi bus coach delivery truck trailer motorcycle evehicle custom1 custom2" width="3.65"/>
    <type id="parking" priority="1" speed="1.39" disallow="pedestrian tram rail_urban rail rail_electric rail_fast ship" width="2.50"/>
    <type id="rail" priority="3" speed="33.33" allow="rail_urban rail rail_electric rail_fast" width="3.65"/>
    <type id="restricted" priority="0" speed="13.89" disallow="all" width="3.65"/>
    <type id="roadWorks" priority="0" speed="1.39" allow="authority" width="3.65"/>
    <type id="shoulder" priority="0" speed="1.39" disallow="all" discard="1" width="1.00"/>
    <type id="special1" priority="1" speed="22.22" allow="custom1" discard="1" width="3.65"/>
    <type id="special2" priority="1" speed="22.22" allow="custom2" discard="1" width="3.65"/>
    <type id="special3" priority="1" speed="22.22" allow="custom1 custom2" discard="1" width="3.65"/>
    <type id="stop" priority="1" speed="13.89" disallow="pedestrian tram rail_urban rail rail_electric rail_fast ship" width="3.65"/>
    <type id="tram" priority="2" speed="13.89" allow="tram" width="3.65"/>

    <edge id=":1_0" function="internal">
        <lane id=":1_0_0" index="0" disallow="pedestrian tram rail_urban rail rail_electric rail_fast ship" speed="4.08" length="5.84" width="4.00" shape="2826.65,1046.43 2828.45,1046.58 2829.37,1047.21 2829.42,1048.33 2828.59,1049.93"/>
    </edge>
    <edge id=":10_0" function="internal">
        <lane id=":10_0_0" index="0" disallow="pedestrian tram rail_urban rail rail_electric rail_fast ship" speed="29.16" length="2.99" width="4.00" shape="2494.62,1524.83 2492.10,1526.45"/>
    </edge>
    <edge id=":10_1" function="internal">
        <lane id=":10_1_0" index="0" disallow="pedestrian tram rail_urban rail rail_electric rail_fast ship" speed="36.11" length="3.00" width="4.00" shape="2492.46,1521.47 2489.94,1523.08"/>
        <lane id=":10_1_1" index="1" disallow="pedestrian tram rail_urban rail rail_electric rail_fast ship" speed="36.11" length="3.00" width="4.00" shape="2490.30,1518.10 2487.77,1519.72"/>
        <lane id=":10_1_2" index="2" disallow="pedestrian tram rail_urban rail rail_electric rail_fast ship" speed="36.11" length="3.00" width="4.00" shape="2488.14,1514.73 2485.61,1516.36"/>
    </edge>
    <edge id=":11_0" function="internal">
        <lane id=":11_0_0" index="0" disallow="pedestrian tram rail_urban rail rail_electric rail_fast ship" speed="27.77" length="4.72" width="4.00" shape="2948.10,1233.01 2946.92,1233.77 2946.09,1234.25 2945.24,1234.70 2944.00,1235.33"/>
    </edge>
    <edge id=":11_1" function="internal">
        <lane id=":11_1_0" index="0" disallow="pedestrian tram rail_urban rail rail_electric rail_fast ship" speed="36.11" length="3.37" width="4.00" shape="2945.90,1229.67 2943.01,1231.54"/>
        <lane id=":11_1_1" index="1" disallow="pedestrian tram rail_urban rail rail_electric rail_fast ship" speed="36.11" length="3.37" width="4.00" shape="2943.70,1226.33 2940.87,1228.16"/>
        <lane id=":11_1_2" index="2" disallow="pedestrian tram rail_urban rail rail_electric rail_fast ship" speed="36.11" length="3.37" width="4.00" shape="2941.50,1222.99 2938.73,1224.78"/>
    </edge>
    <edge id=":12_0" function="internal">
        <lane id=":12_0_0" index="0" disallow="pedestrian tram rail_urban rail rail_electric rail_fast ship" speed="36.11" length="8.00" width="4.00" shape="2907.37,1228.53 2913.99,1224.20"/>
        <lane id=":12_0_1" index="1" disallow="pedestrian tram rail_urban rail rail_electric rail_fast ship" speed="36.11" length="8.00" width="4.00" shape="2909.52,1231.90 2916.21,1227.53"/>
        <lane id=":12_0_2" index="2" disallow="pedestrian tram rail_urban rail rail_electric rail_fast ship" speed="36.11" length="8.00" width="4.00" shape="2911.67,1235.28 2918.44,1230.85"/>
    </edge>
    <edge id=":13_0" function="internal">
        <lane id=":13_0_0" index="0" disallow="pedestrian tram rail_urban rail rail_electric rail_fast ship" speed="29.16" length="5.03" width="4.00" shape="2483.75,1494.14 2485.02,1493.36 2485.92,1492.87 2486.84,1492.43 2488.18,1491.77"/>
    </edge>
    <edge id=":13_1" function="internal">
        <lane id=":13_1_0" index="0" disallow="pedestrian tram rail_urban rail rail_electric rail_fast ship" speed="36.11" length="3.65" width="4.00" shape="2485.91,1497.50 2489.01,1495.52"/>
        <lane id=":13_1_1" index="1" disallow="pedestrian tram rail_urban rail rail_electric rail_fast ship" speed="36.11" length="3.65" width="4.00" shape="2488.08,1500.87 2491.16,1498.90"/>
        <lane id=":13_1_2" index="2" disallow="pedestrian tram rail_urban rail rail_electric rail_fast ship" speed="36.11" length="3.65" width="4.00" shape="2490.25,1504.23 2493.30,1502.28"/>
    </edge>
    <edge id=":2_0" function="internal">
        <lane id=":2_0_0" index="0" disallow="pedestrian tram rail_urban rail rail_electric rail_fast ship" speed="4.08" length="5.84" width="4.00" shape="1639.18,1606.10 1637.60,1605.23 1637.01,1604.28 1637.43,1603.24 1638.84,1602.11"/>
    </edge>
    <edge id=":3_0" function="internal">
        <lane id=":3_0_0" index="0" disallow="pedestrian tram rail_urban rail rail_electric rail_fast ship" speed="22.22" length="27.49" width="4.00" shape="2847.42,1452.91 2841.91,1454.34 2834.05,1456.06 2826.18,1457.76 2820.65,1459.13"/>
    </edge>
    <edge id=":3_1" function="internal">
        <lane id=":3_1_0" index="0" disallow="pedestrian tram rail_urban rail rail_electric rail_fast ship" speed="22.22" length="27.62" width="4.00" shape="2847.42,1452.91 2841.82,1453.85 2833.75,1454.39 2825.64,1454.67 2819.90,1454.85"/>
    </edge>
    <edge id=":3_2" function="internal">
        <lane id=":3_2_0" index="0" disallow="pedestrian tram rail_urban rail rail_electric rail_fast ship" speed="22.22" length="26.53" width="4.00" shape="2819.71,1450.86 2825.28,1450.71 2833.02,1450.49 2840.72,1450.02 2846.15,1449.11"/>
    </edge>
    <edge id=":3_3" function="internal">
        <lane id=":3_3_0" index="0" disallow="pedestrian tram rail_urban rail rail_electric rail_fast ship" speed="5.46" length="3.88" width="4.00" shape="2819.71,1450.86 2822.43,1451.86 2822.83,1452.76"/>
    </edge>
    <edge id=":3_4" function="internal">
        <lane id=":3_4_0" index="0" disallow="pedestrian tram rail_urban rail rail_electric rail_fast ship" speed="4.08" length="2.92" width="4.00" shape="2819.71,1450.86 2821.25,1451.78 2821.80,1452.76"/>
    </edge>
    <edge id=":3_5" function="internal">
        <lane id=":3_5_0" index="0" disallow="pedestrian tram rail_urban rail rail_electric rail_fast ship" speed="5.46" length="7.72" width="4.00" shape="2822.83,1452.76 2823.57,1454.40 2823.02,1457.23 2820.65,1459.13"/>
    </edge>
    <edge id=":3_6" function="internal">
        <lane id=":3_6_0" index="0" disallow="pedestrian tram rail_urban rail rail_electric rail_fast ship" speed="4.08" length="2.92" width="4.00" shape="2821.80,1452.76 2821.35,1453.78 2819.90,1454.85"/>
    </edge>
    <edge id=":4_0" function="internal">
        <lane id=":4_0_0" index="0" disallow="pedestrian tram rail_urban rail rail_electric rail_fast ship" speed="15.71" length="6.81" width="4.00" shape="2595.53,1331.92 2595.13,1333.87 2595.13,1335.24 2595.40,1336.63 2595.78,1338.62"/>
    </edge>
    <edge id=":4_1" function="internal">
        <lane id=":4_1_0" index="0" disallow="pedestrian tram rail_urban rail rail_electric rail_fast ship" speed="4.08" length="2.64" width="4.00" shape="2595.53,1331.92 2594.17,1333.11 2593.35,1333.27"/>
    </edge>
    <edge id=":4_4" function="internal">
        <lane id=":4_4_0" index="0" disallow="pedestrian tram rail_urban rail rail_electric rail_fast ship" speed="4.08" length="3.20" width="4.00" shape="2593.35,1333.27 2593.08,1333.33 2592.24,1332.59 2591.66,1330.88"/>
    </edge>
    <edge id=":4_2" function="internal">
        <lane id=":4_2_0" index="0" disallow="pedestrian tram rail_urban rail rail_electric rail_fast ship" speed="22.22" length="7.58" width="4.00" shape="2591.17,1338.38 2591.57,1336.21 2591.46,1334.65 2591.33,1333.08 2591.66,1330.88"/>
    </edge>
    <edge id=":4_3" function="internal">
        <lane id=":4_3_0" index="0" disallow="pedestrian tram rail_urban rail rail_electric rail_fast ship" speed="5.58" length="4.72" width="4.00" shape="2591.17,1338.38 2592.59,1334.67 2593.13,1334.16"/>
    </edge>
    <edge id=":4_5" function="internal">
        <lane id=":4_5_0" index="0" disallow="pedestrian tram rail_urban rail rail_electric rail_fast ship" speed="5.58" length="6.60" width="4.00" shape="2593.13,1334.16 2593.84,1333.48 2594.90,1334.79 2595.78,1338.62"/>
    </edge>
    <edge id=":5_0" function="internal">
        <lane id=":5_0_0" index="0" disallow="pedestrian tram rail_urban rail rail_electric rail_fast ship" speed="22.22" length="12.75" width="4.00" shape="2886.54,1439.18 2883.29,1440.16 2880.55,1441.31 2877.83,1442.54 2874.66,1443.77"/>
    </edge>
    <edge id=":5_1" function="internal">
        <lane id=":5_1_0" index="0" disallow="pedestrian tram rail_urban rail rail_electric rail_fast ship" speed="4.08" length="2.79" width="4.00" shape="2886.54,1439.18 2884.85,1438.55 2884.21,1437.80"/>
    </edge>
    <edge id=":5_5" function="internal">
        <lane id=":5_5_0" index="0" disallow="pedestrian tram rail_urban rail rail_electric rail_fast ship" speed="4.08" length="3.06" width="4.00" shape="2884.21,1437.80 2884.13,1437.69 2884.38,1436.61 2885.61,1435.29"/>
    </edge>
    <edge id=":5_2" function="internal">
        <lane id=":5_2_0" index="0" disallow="pedestrian tram rail_urban rail rail_electric rail_fast ship" speed="20.83" length="12.97" width="4.00" shape="2872.69,1435.59 2876.14,1435.72 2879.20,1435.89 2882.24,1435.83 2885.61,1435.29"/>
    </edge>
    <edge id=":5_3" function="internal">
        <lane id=":5_3_0" index="0" disallow="pedestrian tram rail_urban rail rail_electric rail_fast ship" speed="5.53" length="11.64" width="4.00" shape="2872.69,1435.59 2875.59,1436.68 2877.09,1439.14 2876.88,1441.87 2874.66,1443.77"/>
    </edge>
    <edge id=":5_4" function="internal">
        <lane id=":5_4_0" index="0" disallow="pedestrian tram rail_urban rail rail_electric rail_fast ship" speed="22.22" length="13.11" width="4.00" shape="2873.39,1439.98 2876.61,1438.74 2879.45,1437.47 2882.31,1436.28 2885.61,1435.29"/>
    </edge>
    <edge id=":6_0" function="internal">
        <lane id=":6_0_0" index="0" disallow="pedestrian tram rail_urban rail rail_electric rail_fast ship" speed="4.08" length="5.84" width="4.00" shape="3212.54,1345.35 3214.26,1345.86 3215.04,1346.67 3214.86,1347.77 3213.72,1349.17"/>
    </edge>
    <edge id=":7_0" function="internal">
        <lane id=":7_0_0" index="0" disallow="pedestrian tram rail_urban rail rail_electric rail_fast ship" speed="36.11" length="8.25" width="4.00" shape="2396.48,1555.91 2398.21,1554.09 2398.68,1552.16 2399.14,1550.20 2400.83,1548.31"/>
        <lane id=":7_0_1" index="1" disallow="pedestrian tram rail_urban rail rail_electric rail_fast ship" speed="36.11" length="8.25" width="4.00" shape="2396.48,1555.91 2403.07,1551.63"/>
        <lane id=":7_0_2" index="2" disallow="pedestrian tram rail_urban rail rail_electric rail_fast ship" speed="36.11" length="8.25" width="4.00" shape="2398.61,1559.30 2405.30,1554.95"/>
        <lane id=":7_0_3" index="3" disallow="pedestrian tram rail_urban rail rail_electric rail_fast ship" speed="36.11" length="8.25" width="4.00" shape="2400.74,1562.69 2407.53,1558.27"/>
    </edge>
    <edge id=":8_0" function="internal">
        <lane id=":8_0_0" index="0" disallow="pedestrian tram rail_urban rail rail_electric rail_fast ship" speed="36.11" length="7.99" width="4.00" shape="2308.95,1638.32 2302.13,1642.55"/>
        <lane id=":8_0_1" index="1" disallow="pedestrian tram rail_urban rail rail_electric rail_fast ship" speed="36.11" length="7.99" width="4.00" shape="2306.83,1634.93 2300.04,1639.14"/>
        <lane id=":8_0_2" index="2" disallow="pedestrian tram rail_urban rail rail_electric rail_fast ship" speed="36.11" length="7.99" width="4.00" shape="2304.71,1631.53 2297.94,1635.74"/>
    </edge>
    <edge id=":9_0" function="internal">
        <lane id=":9_0_0" index="0" disallow="pedestrian tram rail_urban rail rail_electric rail_fast ship" speed="36.11" length="3.73" width="4.00" shape="2742.35,1334.50 2745.45,1332.53"/>
        <lane id=":9_0_1" index="1" disallow="pedestrian tram rail_urban rail rail_electric rail_fast ship" speed="36.11" length="3.73" width="4.00" shape="2744.48,1337.89 2747.62,1335.88"/>
        <lane id=":9_0_2" index="2" disallow="pedestrian tram rail_urban rail rail_electric rail_fast ship" speed="36.11" length="3.73" width="4.00" shape="2746.60,1341.27 2749.80,1339.24"/>
    </edge>
    <edge id=":9_3" function="internal">
        <lane id=":9_3_0" index="0" disallow="pedestrian tram rail_urban rail rail_electric rail_fast ship" speed="29.16" length="3.51" width="4.00" shape="2740.39,1331.15 2743.28,1329.17"/>
    </edge>

    <edge id="-170.0.00" from="1" to="2" priority="1" type="driving" shape="2827.62,1048.18 2824.74,1049.78 2823.27,1050.59 2821.52,1051.53 2819.61,1052.55 2817.64,1053.59 2815.73,1054.60 2813.97,1055.51 2812.47,1056.28 2785.59,1069.86 2784.09,1070.61 2782.30,1071.47 2780.35,1072.41 2778.33,1073.35 2776.37,1074.26 2774.56,1075.08 2773.03,1075.77 2725.82,1096.31 2724.29,1097.00 2722.51,1097.86 2720.57,1098.81 2718.58,1099.82 2716.66,1100.82 2714.92,1101.76 2713.46,1102.59 2697.81,1111.75 2696.36,1112.59 2694.63,1113.57 2692.75,1114.64 2690.80,1115.73 2688.91,1116.78 2687.17,1117.73 2685.69,1118.53 2601.59,1163.65 2600.10,1164.43 2598.33,1165.33 2596.39,1166.30 2594.39,1167.28 2592.44,1168.21 2590.64,1169.05 2589.11,1169.75 2426.36,1241.75 2424.81,1242.41 2422.98,1243.16 2420.96,1243.94 2418.88,1244.73 2416.85,1245.48 2414.98,1246.14 2413.39,1246.67 2368.38,1260.99 2366.80,1261.54 2364.95,1262.25 2362.96,1263.08 2360.93,1263.97 2358.98,1264.88 2357.21,1265.76 2355.74,1266.55 2295.73,1301.02 2294.28,1301.86 2292.56,1302.85 2290.69,1303.94 2288.76,1305.06 2286.89,1306.15 2285.18,1307.15 2283.73,1308.00 2188.64,1364.09 2187.19,1364.95 2185.49,1365.96 2183.62,1367.06 2181.71,1368.20 2179.85,1369.31 2178.14,1370.32 2176.70,1371.19 2049.26,1447.42 2047.81,1448.28 2046.11,1449.30 2044.25,1450.42 2042.35,1451.57 2040.49,1452.68 2038.79,1453.70 2037.35,1454.57 1946.90,1509.08 1945.46,1509.95 1943.77,1510.99 1941.92,1512.12 1940.03,1513.30 1938.19,1514.44 1936.50,1515.49 1935.08,1516.38 1850.87,1569.70 1849.45,1570.58 1847.74,1571.60 1845.87,1572.68 1843.93,1573.78 1842.04,1574.83 1840.29,1575.77 1838.80,1576.54 1777.99,1607.15 1776.47,1607.85 1774.65,1608.61 1772.64,1609.38 1770.55,1610.12 1768.51,1610.79 1766.62,1611.35 1765.00,1611.76 1742.37,1616.73 1740.72,1616.53 1738.80,1615.80 1737.16,1615.22 1735.70,1614.93 1733.92,1614.63 1732.14,1614.36 1730.66,1614.17 1690.10,1609.48 1688.53,1609.26 1686.69,1608.95 1684.68,1608.58 1682.61,1608.17 1680.61,1607.77 1678.77,1607.41 1677.21,1607.10 1675.68,1606.81 1673.87,1606.47 1671.90,1606.08 1669.87,1605.69 1667.90,1605.32 1666.09,1604.99 1664.55,1604.72 1663.10,1604.51 1661.34,1604.30 1659.58,1604.10 1658.12,1603.95 1656.67,1603.83 1654.90,1603.69 1653.14,1603.57 1651.68,1603.50 1650.25,1603.47 1648.51,1603.46 1646.78,1603.48 1645.35,1603.56 1639.01,1604.11">
        <lane id="-170.0.00_0" index="0" disallow="pedestrian tram rail_urban rail rail_electric rail_fast ship" speed="13.89" length="1334.00" width="4.00" shape="2828.59,1049.93 2825.71,1051.53 2824.22,1052.34 2822.47,1053.29 2820.55,1054.32 2818.58,1055.36 2816.65,1056.37 2814.88,1057.29 2813.38,1058.06 2786.49,1071.65 2784.97,1072.40 2783.17,1073.28 2781.20,1074.21 2779.18,1075.17 2777.20,1076.08 2775.38,1076.91 2773.83,1077.60 2726.62,1098.15 2725.14,1098.82 2723.38,1099.65 2721.46,1100.60 2719.50,1101.60 2717.60,1102.59 2715.89,1103.52 2714.46,1104.32 2698.82,1113.47 2697.35,1114.32 2695.62,1115.31 2693.73,1116.38 2691.78,1117.47 2689.88,1118.53 2688.13,1119.49 2686.64,1120.30 2602.53,1165.42 2601.02,1166.21 2599.23,1167.12 2597.28,1168.09 2595.26,1169.08 2593.30,1170.02 2591.48,1170.87 2589.93,1171.57 2427.16,1243.58 2425.58,1244.26 2423.72,1245.01 2421.68,1245.81 2419.58,1246.61 2417.53,1247.36 2415.63,1248.03 2414.01,1248.57 2368.98,1262.89 2367.49,1263.41 2365.70,1264.11 2363.75,1264.92 2361.76,1265.79 2359.84,1266.69 2358.12,1267.54 2356.71,1268.30 2296.73,1302.75 2295.28,1303.59 2293.56,1304.58 2291.69,1305.67 2289.77,1306.79 2287.90,1307.88 2286.19,1308.88 2284.74,1309.73 2189.66,1365.82 2188.21,1366.67 2186.51,1367.68 2184.64,1368.78 2182.73,1369.92 2180.87,1371.03 2179.17,1372.04 2177.73,1372.90 2050.28,1449.14 2048.84,1450.00 2047.14,1451.02 2045.28,1452.13 2043.38,1453.28 2041.52,1454.40 2039.82,1455.42 2038.38,1456.28 1947.93,1510.80 1946.50,1511.66 1944.81,1512.69 1942.97,1513.83 1941.08,1515.00 1939.24,1516.14 1937.56,1517.18 1936.15,1518.07 1851.94,1571.39 1850.48,1572.30 1848.75,1573.32 1846.86,1574.42 1844.91,1575.52 1843.00,1576.58 1841.23,1577.54 1839.71,1578.32 1778.88,1608.93 1777.28,1609.68 1775.39,1610.47 1773.33,1611.26 1771.20,1612.01 1769.10,1612.70 1767.15,1613.28 1765.46,1613.70 1742.47,1618.75 1740.24,1618.48 1738.11,1617.68 1736.63,1617.15 1735.34,1616.90 1733.61,1616.61 1731.86,1616.34 1730.42,1616.16 1689.87,1611.47 1688.23,1611.24 1686.34,1610.92 1684.30,1610.54 1682.22,1610.14 1680.21,1609.73 1678.38,1609.37 1676.83,1609.07 1675.30,1608.78 1673.49,1608.43 1671.52,1608.05 1669.50,1607.66 1667.53,1607.29 1665.74,1606.96 1664.24,1606.70 1662.84,1606.49 1661.11,1606.28 1659.37,1606.09 1657.94,1605.95 1656.50,1605.82 1654.76,1605.68 1653.03,1605.57 1651.61,1605.50 1650.22,1605.47 1648.52,1605.46 1646.84,1605.48 1645.49,1605.55 1639.18,1606.10" type="driving"/>
    </edge>
    <edge id="-171.0.00" from="3" to="4" priority="1" type="driving" shape="2819.80,1452.85 2813.61,1453.15 2811.99,1453.22 2810.09,1453.29 2808.00,1453.34 2805.83,1453.36 2803.66,1453.34 2801.58,1453.25 2799.70,1453.08 2798.11,1452.83 2796.63,1452.45 2794.95,1451.91 2793.13,1451.25 2791.23,1450.50 2789.32,1449.69 2787.45,1448.86 2785.70,1448.03 2784.11,1447.24 2782.76,1446.52 2781.46,1445.77 2780.00,1444.87 2778.41,1443.85 2776.75,1442.74 2775.06,1441.57 2773.39,1440.38 2771.77,1439.21 2770.27,1438.07 2768.91,1437.01 2767.75,1436.06 2766.52,1435.00 2765.12,1433.79 2763.62,1432.44 2762.03,1430.99 2760.41,1429.47 2758.79,1427.92 2757.22,1426.36 2755.74,1424.82 2754.38,1423.33 2753.19,1421.93 2752.21,1420.64 2737.32,1399.66 2736.46,1398.44 2735.49,1397.05 2734.44,1395.53 2733.33,1393.92 2732.19,1392.23 2731.02,1390.52 2729.86,1388.80 2728.72,1387.10 2727.63,1385.47 2726.61,1383.94 2725.68,1382.52 2724.86,1381.27 2701.35,1344.90 2700.53,1343.65 2699.60,1342.23 2698.59,1340.69 2697.50,1339.06 2696.37,1337.37 2695.21,1335.64 2694.05,1333.92 2692.91,1332.24 2691.80,1330.61 2690.76,1329.09 2689.80,1327.70 2688.94,1326.47 2674.81,1306.27 2673.85,1305.15 2672.57,1304.02 2671.05,1302.89 2669.37,1301.80 2667.59,1300.75 2665.81,1299.78 2664.09,1298.90 2662.50,1298.13 2661.14,1297.50 2659.74,1296.92 2658.09,1296.32 2656.26,1295.71 2654.31,1295.11 2652.32,1294.55 2650.36,1294.03 2648.48,1293.58 2646.76,1293.21 2645.27,1292.94 2643.64,1292.72 2641.72,1292.53 2639.61,1292.38 2637.41,1292.27 2635.21,1292.22 2633.10,1292.23 2631.19,1292.32 2629.55,1292.49 2627.95,1292.82 2626.09,1293.35 2624.09,1294.02 2622.05,1294.80 2620.09,1295.61 2618.32,1296.41 2616.86,1297.15 2615.54,1297.91 2614.04,1298.86 2612.42,1299.94 2610.75,1301.12 2609.11,1302.33 2607.57,1303.53 2606.20,1304.66 2605.07,1305.68 2604.04,1306.71 2602.85,1307.97 2601.60,1309.40 2600.39,1310.91 2599.31,1312.44 2598.46,1313.90 2597.93,1315.23 2593.59,1331.40">
        <lane id="-171.0.00_0" index="0" disallow="pedestrian tram rail_urban rail rail_electric rail_fast ship" speed="22.22" length="319.78" width="4.00" shape="2819.90,1454.85 2813.71,1455.15 2812.07,1455.22 2810.15,1455.29 2808.04,1455.34 2805.83,1455.36 2803.60,1455.34 2801.46,1455.24 2799.46,1455.07 2797.70,1454.79 2796.08,1454.37 2794.31,1453.81 2792.42,1453.12 2790.48,1452.35 2788.52,1451.53 2786.62,1450.68 2784.82,1449.83 2783.20,1449.02 2781.79,1448.27 2780.44,1447.49 2778.93,1446.56 2777.31,1445.52 2775.63,1444.39 2773.92,1443.21 2772.22,1442.01 2770.58,1440.81 2769.05,1439.66 2767.66,1438.57 2766.46,1437.59 2765.21,1436.51 2763.80,1435.28 2762.28,1433.92 2760.67,1432.46 2759.03,1430.92 2757.39,1429.35 2755.80,1427.76 2754.28,1426.19 2752.88,1424.65 2751.63,1423.19 2750.59,1421.83 2735.69,1400.82 2734.82,1399.58 2733.85,1398.19 2732.80,1396.67 2731.68,1395.05 2730.53,1393.36 2729.36,1391.64 2728.20,1389.91 2727.06,1388.22 2725.97,1386.58 2724.94,1385.04 2724.01,1383.62 2723.19,1382.36 2699.67,1345.99 2698.86,1344.74 2697.93,1343.33 2696.92,1341.80 2695.84,1340.17 2694.71,1338.48 2693.55,1336.76 2692.39,1335.04 2691.25,1333.36 2690.15,1331.74 2689.11,1330.23 2688.16,1328.84 2687.31,1327.62 2673.22,1307.50 2672.42,1306.56 2671.31,1305.57 2669.91,1304.54 2668.31,1303.50 2666.61,1302.49 2664.87,1301.55 2663.20,1300.69 2661.65,1299.94 2660.33,1299.33 2659.01,1298.78 2657.43,1298.20 2655.65,1297.61 2653.75,1297.03 2651.80,1296.48 2649.87,1295.97 2648.04,1295.53 2646.37,1295.17 2644.96,1294.92 2643.41,1294.71 2641.55,1294.52 2639.49,1294.37 2637.34,1294.27 2635.19,1294.22 2633.15,1294.23 2631.33,1294.31 2629.86,1294.47 2628.43,1294.76 2626.69,1295.26 2624.76,1295.91 2622.79,1296.66 2620.89,1297.44 2619.18,1298.22 2617.81,1298.91 2616.58,1299.62 2615.13,1300.53 2613.55,1301.59 2611.92,1302.74 2610.32,1303.93 2608.82,1305.09 2607.51,1306.18 2606.44,1307.14 2605.47,1308.10 2604.33,1309.31 2603.13,1310.68 2601.99,1312.11 2600.99,1313.52 2600.26,1314.78 2599.84,1315.86 2595.53,1331.92" type="driving"/>
    </edge>
    <edge id="-172.0.00" from="5" to="3" priority="1" type="driving" shape="2874.02,1441.87 2846.78,1451.01">
        <lane id="-172.0.00_0" index="0" disallow="pedestrian tram rail_urban rail rail_electric rail_fast ship" speed="22.22" length="28.73" width="4.00" shape="2874.66,1443.77 2847.42,1452.91" type="driving"/>
    </edge>
    <edge id="-173.0.00" from="6" to="5" priority="1" type="driving" shape="3211.92,1347.63 3103.53,1381.17 3102.09,1381.62 3100.48,1382.12 3098.72,1382.66 3096.84,1383.24 3094.90,1383.85 3092.91,1384.46 3090.93,1385.07 3088.98,1385.68 3087.11,1386.25 3085.34,1386.80 3083.73,1387.30 3082.30,1387.74 3080.73,1388.23 3078.89,1388.81 3076.88,1389.44 3074.78,1390.10 3072.68,1390.75 3070.67,1391.37 3068.83,1391.93 3067.25,1392.40 3065.81,1392.81 3064.19,1393.28 3062.42,1393.79 3060.53,1394.33 3058.57,1394.89 3056.57,1395.45 3054.57,1396.01 3052.61,1396.55 3050.72,1397.06 3048.94,1397.54 3047.30,1397.97 3045.85,1398.33 2939.49,1424.44 2938.03,1424.79 2936.39,1425.20 2934.60,1425.63 2932.69,1426.09 2930.71,1426.57 2928.69,1427.06 2926.67,1427.55 2924.69,1428.03 2922.79,1428.49 2920.99,1428.92 2919.35,1429.31 2917.89,1429.66 2886.07,1437.23">
        <lane id="-173.0.00_0" index="0" disallow="pedestrian tram rail_urban rail rail_electric rail_fast ship" speed="22.22" length="339.49" width="4.00" shape="3213.72,1349.17 3104.12,1383.09 3102.69,1383.53 3101.07,1384.03 3099.31,1384.57 3097.43,1385.15 3095.49,1385.76 3093.50,1386.37 3091.52,1386.98 3089.57,1387.59 3087.70,1388.17 3085.94,1388.71 3084.32,1389.21 3082.89,1389.65 3081.32,1390.14 3079.49,1390.72 3077.48,1391.35 3075.38,1392.00 3073.28,1392.66 3071.26,1393.28 3069.41,1393.85 3067.81,1394.32 3066.37,1394.74 3064.74,1395.21 3062.97,1395.72 3061.08,1396.25 3059.11,1396.81 3057.11,1397.37 3055.11,1397.93 3053.14,1398.48 3051.24,1398.99 3049.45,1399.47 3047.80,1399.90 3046.33,1400.27 2939.96,1426.38 2938.51,1426.74 2936.86,1427.14 2935.07,1427.57 2933.16,1428.04 2931.18,1428.52 2929.16,1429.01 2927.14,1429.49 2925.16,1429.97 2923.25,1430.43 2921.46,1430.86 2919.81,1431.26 2918.35,1431.60 2886.54,1439.18" type="driving"/>
    </edge>