<?xml version="1.0" encoding="UTF-8"?>

<!-- generated on 2022-02-16 15:52:58 by Eclipse SUMO netconvert Version 1.11.0
<configuration xmlns:xsi="http://www.w3.org/2001/XMLSchema-instance" xsi:noNamespaceSchemaLocation="http://sumo.dlr.de/xsd/netconvertConfiguration.xsd">

    <input>
        <opendrive-files value="./map_xodr/insertion_route_Auch.xodr"/>
    </input>

    <output>
        <output-file value="./map_net_xml/insertion_route_Auch.net.xml"/>
    </output>

    <processing>
        <geometry.max-grade.fix value="false"/>
    </processing>

    <tls_building>
        <tls.left-green.time value="0"/>
    </tls_building>

    <junctions>
        <rectangular-lane-cut value="true"/>
    </junctions>

    <report>
        <aggregate-warnings value="5"/>
    </report>

</configuration>
-->

<net version="1.9" junctionCornerDetail="5" rectangularLaneCut="true" limitTurnSpeed="5.50" xmlns:xsi="http://www.w3.org/2001/XMLSchema-instance" xsi:noNamespaceSchemaLocation="http://sumo.dlr.de/xsd/net_file.xsd">

    <location netOffset="-3.92,0.81" convBoundary="0.00,0.00,1054.60,705.44" origBoundary="3.92,-0.81,1060.92,708.52" projParameter="!"/>

    <type id="bidirectional" priority="1" speed="1.39" disallow="pedestrian tram rail_urban rail rail_electric rail_fast ship" width="3.65"/>
    <type id="border" priority="0" speed="1.39" disallow="all" discard="1" width="0.10"/>
    <type id="driving" priority="1" speed="13.89" disallow="pedestrian tram rail_urban rail rail_electric rail_fast ship" width="3.65"/>
    <type id="entry" priority="1" speed="22.22" disallow="pedestrian tram rail_urban rail rail_electric rail_fast ship" width="3.65"/>
    <type id="exit" priority="1" speed="22.22" disallow="pedestrian tram rail_urban rail rail_electric rail_fast ship" width="3.65"/>
    <type id="median" priority="0" speed="1.39" disallow="all" discard="1" width="0.10"/>
    <type id="mwyEntry" priority="1" speed="22.22" allow="private emergency authority army vip passenger hov taxi bus coach delivery truck trailer motorcycle evehicle custom1 custom2" width="3.65"/>
    <type id="mwyExit" priority="1" speed="22.22" allow="private emergency authority army vip passenger hov taxi bus coach delivery truck trailer motorcycle evehicle custom1 custom2" width="3.65"/>
    <type id="none" priority="0" speed="1.39" disallow="all" discard="1" width="1.00"/>
    <type id="offRamp" priority="1" speed="22.22" allow="private emergency authority army vip passenger hov taxi bus coach delivery truck trailer motorcycle evehicle custom1 custom2" width="3.65"/>
    <type id="onRamp" priority="1" speed="22.22" allow="private emergency authority army vip passenger hov taxi bus coach delivery truck trailer motorcycle evehicle custom1 custom2" width="3.65"/>
    <type id="parking" priority="1" speed="1.39" disallow="pedestrian tram rail_urban rail rail_electric rail_fast ship" width="2.50"/>
    <type id="rail" priority="3" speed="33.33" allow="rail_urban rail rail_electric rail_fast" width="3.65"/>
    <type id="restricted" priority="0" speed="13.89" disallow="all" width="3.65"/>
    <type id="roadWorks" priority="0" speed="1.39" allow="authority" width="3.65"/>
    <type id="shoulder" priority="0" speed="1.39" disallow="all" discard="1" width="1.00"/>
    <type id="special1" priority="1" speed="22.22" allow="custom1" discard="1" width="3.65"/>
    <type id="special2" priority="1" speed="22.22" allow="custom2" discard="1" width="3.65"/>
    <type id="special3" priority="1" speed="22.22" allow="custom1 custom2" discard="1" width="3.65"/>
    <type id="stop" priority="1" speed="13.89" disallow="pedestrian tram rail_urban rail rail_electric rail_fast ship" width="3.65"/>
    <type id="tram" priority="2" speed="13.89" allow="tram" width="3.65"/>

    <edge id=":1_0" function="internal">
        <lane id=":1_0_0" index="0" disallow="pedestrian tram rail_urban rail rail_electric rail_fast ship" speed="4.08" length="5.84" width="4.00" shape="276.57,211.15 276.70,209.35 277.33,208.43 278.44,208.37 280.05,209.18"/>
    </edge>
    <edge id=":10_0" function="internal">
        <lane id=":10_0_0" index="0" disallow="pedestrian tram rail_urban rail rail_electric rail_fast ship" speed="12.22" length="11.22" width="4.00" shape="265.69,611.95 263.84,609.42 261.98,607.88 259.74,606.83 256.71,605.80"/>
    </edge>
    <edge id=":10_1" function="internal">
        <lane id=":10_1_0" index="0" disallow="pedestrian tram rail_urban rail rail_electric rail_fast ship" speed="24.09" length="11.13" width="4.00" shape="267.68,607.03 264.52,607.16 262.10,607.10 259.72,606.69 256.71,605.80"/>
    </edge>
    <edge id=":11_0" function="internal">
        <lane id=":11_0_0" index="0" disallow="pedestrian tram rail_urban rail rail_electric rail_fast ship" speed="22.27" length="11.74" width="4.00" shape="248.82,555.79 251.35,553.75 253.29,551.96 254.96,549.94 256.65,547.19"/>
    </edge>
    <edge id=":11_1" function="internal">
        <lane id=":11_1_0" index="0" disallow="pedestrian tram rail_urban rail rail_electric rail_fast ship" speed="20.26" length="12.76" width="4.00" shape="248.82,555.79 251.60,553.87 254.28,552.60 257.13,551.69 260.45,550.87"/>
    </edge>
    <edge id=":12_0" function="internal">
        <lane id=":12_0_0" index="0" disallow="pedestrian tram rail_urban rail rail_electric rail_fast ship" speed="26.36" length="15.83" width="4.00" shape="287.83,563.65 289.68,567.10 291.58,570.70 293.13,574.41 293.95,578.15"/>
    </edge>
    <edge id=":12_1" function="internal">
        <lane id=":12_1_0" index="0" disallow="pedestrian tram rail_urban rail rail_electric rail_fast ship" speed="10.42" length="18.04" width="4.00" shape="302.46,563.64 298.41,566.16 295.64,569.42 294.15,573.41 293.95,578.15"/>
    </edge>
    <edge id=":13_0" function="internal">
        <lane id=":13_0_0" index="0" disallow="pedestrian tram rail_urban rail rail_electric rail_fast ship" speed="12.39" length="7.52" width="4.00" shape="293.96,578.35 294.44,580.40 295.34,581.61 296.59,582.68 298.09,584.36"/>
    </edge>
    <edge id=":13_1" function="internal">
        <lane id=":13_1_0" index="0" disallow="pedestrian tram rail_urban rail rail_electric rail_fast ship" speed="17.63" length="7.80" width="4.00" shape="293.96,578.35 294.11,580.65 294.02,582.23 293.65,583.79 292.94,585.98"/>
    </edge>
    <edge id=":14_0" function="internal">
        <lane id=":14_0_0" index="0" disallow="pedestrian tram rail_urban rail rail_electric rail_fast ship" speed="9.43" length="8.48" width="4.00" shape="294.13,596.75 291.32,596.77 289.03,597.07 287.26,597.64 286.02,598.48"/>
    </edge>
    <edge id=":14_1" function="internal">
        <lane id=":14_1_0" index="0" disallow="pedestrian tram rail_urban rail rail_electric rail_fast ship" speed="21.56" length="7.73" width="4.00" shape="290.46,592.25 289.47,594.31 288.65,595.65 287.63,596.86 286.02,598.48"/>
    </edge>
    <edge id=":15_0" function="internal">
        <lane id=":15_0_0" index="0" disallow="pedestrian tram rail_urban rail rail_electric rail_fast ship" speed="11.50" length="8.35" width="4.00" shape="285.87,598.62 284.41,600.47 283.91,602.07 283.84,603.88 283.61,606.37"/>
    </edge>
    <edge id=":15_1" function="internal">
        <lane id=":15_1_0" index="0" disallow="pedestrian tram rail_urban rail rail_electric rail_fast ship" speed="24.47" length="8.55" width="4.00" shape="285.87,598.62 284.08,600.42 282.78,601.59 281.33,602.54 279.07,603.68"/>
    </edge>
    <edge id=":16_0" function="internal">
        <lane id=":16_0_0" index="0" disallow="pedestrian tram rail_urban rail rail_electric rail_fast ship" speed="30.56" length="3.03" width="4.00" shape="198.63,408.64 196.46,406.44"/>
        <lane id=":16_0_1" index="1" disallow="pedestrian tram rail_urban rail rail_electric rail_fast ship" speed="30.56" length="3.03" width="4.00" shape="201.44,405.79 199.35,403.68"/>
    </edge>
    <edge id=":16_2" function="internal">
        <lane id=":16_2_0" index="0" disallow="pedestrian tram rail_urban rail rail_electric rail_fast ship" speed="26.39" length="3.18" width="4.00" shape="195.91,411.34 193.56,409.20"/>
    </edge>
    <edge id=":17_0" function="internal">
        <lane id=":17_0_0" index="0" disallow="pedestrian tram rail_urban rail rail_electric rail_fast ship" speed="25.00" length="4.11" width="4.00" shape="629.26,635.19 628.06,635.03 627.24,634.86 626.44,634.63 625.26,634.29"/>
    </edge>
    <edge id=":17_1" function="internal">
        <lane id=":17_1_0" index="0" disallow="pedestrian tram rail_urban rail rail_electric rail_fast ship" speed="30.56" length="2.77" width="4.00" shape="629.70,631.21 626.79,630.78"/>
        <lane id=":17_1_1" index="1" disallow="pedestrian tram rail_urban rail rail_electric rail_fast ship" speed="30.56" length="2.77" width="4.00" shape="630.13,627.24 627.55,626.85"/>
    </edge>
    <edge id=":18_0" function="internal">
        <lane id=":18_0_0" index="0" disallow="pedestrian tram rail_urban rail rail_electric rail_fast ship" speed="19.44" length="7.45" width="4.00" shape="358.04,556.16 355.93,556.05 354.49,556.50 353.03,557.04 350.89,557.20"/>
        <lane id=":18_0_1" index="1" disallow="pedestrian tram rail_urban rail rail_electric rail_fast ship" speed="19.44" length="7.45" width="4.00" shape="358.04,556.16 355.94,555.42 354.62,554.50 353.29,553.67 351.16,553.21"/>
    </edge>
    <edge id=":19_0" function="internal">
        <lane id=":19_0_0" index="0" disallow="pedestrian tram rail_urban rail rail_electric rail_fast ship" speed="30.56" length="8.41" width="4.00" shape="731.90,640.91 729.35,641.35 727.76,642.61 726.17,643.87 723.62,644.30"/>
        <lane id=":19_0_1" index="1" disallow="pedestrian tram rail_urban rail rail_electric rail_fast ship" speed="30.56" length="8.41" width="4.00" shape="731.90,640.91 723.92,640.31"/>
        <lane id=":19_0_2" index="2" disallow="pedestrian tram rail_urban rail rail_electric rail_fast ship" speed="30.56" length="8.41" width="4.00" shape="732.20,636.92 724.22,636.32"/>
    </edge>
    <edge id=":2_0" function="internal">
        <lane id=":2_0_0" index="0" disallow="pedestrian tram rail_urban rail rail_electric rail_fast ship" speed="4.08" length="5.84" width="4.00" shape="790.52,614.25 791.94,615.37 792.36,616.41 791.78,617.36 790.20,618.24"/>
    </edge>
    <edge id=":20_0" function="internal">
        <lane id=":20_0_0" index="0" disallow="pedestrian tram rail_urban rail rail_electric rail_fast ship" speed="30.56" length="8.12" width="4.00" shape="135.19,334.00 130.40,327.42"/>
        <lane id=":20_0_1" index="1" disallow="pedestrian tram rail_urban rail rail_electric rail_fast ship" speed="30.56" length="8.12" width="4.00" shape="138.42,331.65 133.65,325.09"/>
    </edge>
    <edge id=":3_0" function="internal">
        <lane id=":3_0_0" index="0" disallow="pedestrian tram rail_urban rail rail_electric rail_fast ship" speed="4.08" length="5.84" width="4.00" shape="1054.98,703.82 1056.21,705.14 1056.46,706.23 1055.75,707.09 1054.05,707.71"/>
    </edge>
    <edge id=":4_0" function="internal">
        <lane id=":4_0_0" index="0" disallow="pedestrian tram rail_urban rail rail_electric rail_fast ship" speed="13.89" length="10.63" width="4.00" shape="311.64,599.99 308.72,599.00 306.60,598.23 304.44,597.65 301.42,597.25"/>
    </edge>
    <edge id=":4_1" function="internal">
        <lane id=":4_1_0" index="0" disallow="pedestrian tram rail_urban rail rail_electric rail_fast ship" speed="4.08" length="2.92" width="4.00" shape="311.64,599.99 310.50,598.60 310.31,597.49"/>
    </edge>
    <edge id=":4_4" function="internal">
        <lane id=":4_4_0" index="0" disallow="pedestrian tram rail_urban rail rail_electric rail_fast ship" speed="4.08" length="2.92" width="4.00" shape="310.31,597.49 311.08,596.68 312.81,596.16"/>
    </edge>
    <edge id=":4_2" function="internal">
        <lane id=":4_2_0" index="0" disallow="pedestrian tram rail_urban rail rail_electric rail_fast ship" speed="13.89" length="6.31" width="4.00" shape="307.25,593.26 308.82,594.28 309.90,594.99 311.05,595.55 312.81,596.16"/>
    </edge>
    <edge id=":4_3" function="internal">
        <lane id=":4_3_0" index="0" disallow="pedestrian tram rail_urban rail rail_electric rail_fast ship" speed="6.04" length="5.81" width="4.00" shape="307.25,593.26 310.03,595.45 309.99,596.85 309.13,597.02"/>
    </edge>
    <edge id=":4_5" function="internal">
        <lane id=":4_5_0" index="0" disallow="pedestrian tram rail_urban rail rail_electric rail_fast ship" speed="6.04" length="7.76" width="4.00" shape="309.13,597.02 307.12,597.45 301.42,597.25"/>
    </edge>
    <edge id=":5_0" function="internal">
        <lane id=":5_0_0" index="0" disallow="pedestrian tram rail_urban rail rail_electric rail_fast ship" speed="13.64" length="9.47" width="4.00" shape="238.00,560.13 240.80,559.87 242.77,559.62 244.56,558.93 246.83,557.36"/>
    </edge>
    <edge id=":5_1" function="internal">
        <lane id=":5_1_0" index="0" disallow="pedestrian tram rail_urban rail rail_electric rail_fast ship" speed="16.59" length="9.18" width="4.00" shape="240.99,564.27 242.23,561.87 243.32,560.34 244.70,559.05 246.83,557.36"/>
    </edge>
    <edge id=":6_0" function="internal">
        <lane id=":6_0_0" index="0" disallow="pedestrian tram rail_urban rail rail_electric rail_fast ship" speed="15.72" length="15.01" width="4.00" shape="237.92,586.44 236.54,583.40 234.76,580.99 232.23,578.69 228.65,575.96"/>
        <lane id=":6_0_1" index="1" disallow="pedestrian tram rail_urban rail rail_electric rail_fast ship" speed="16.51" length="15.01" width="4.00" shape="237.92,586.44 236.99,582.96 236.15,579.53 234.47,576.14 231.02,572.74"/>
    </edge>
    <edge id=":6_2" function="internal">
        <lane id=":6_2_0" index="0" disallow="pedestrian tram rail_urban rail rail_electric rail_fast ship" speed="13.86" length="18.28" width="4.00" shape="237.92,586.44 236.74,581.93 236.50,577.47 237.21,573.05 238.85,568.67"/>
    </edge>
    <edge id=":7_0" function="internal">
        <lane id=":7_0_0" index="0" disallow="pedestrian tram rail_urban rail rail_electric rail_fast ship" speed="20.84" length="0.10" width="4.00" shape="286.53,637.75 286.53,637.75"/>
    </edge>
    <edge id=":8_0" function="internal">
        <lane id=":8_0_0" index="0" disallow="pedestrian tram rail_urban rail rail_electric rail_fast ship" speed="4.09" length="5.82" width="4.00" shape="293.34,662.81 292.79,664.52 291.97,665.28 290.88,665.07 289.51,663.91"/>
    </edge>
    <edge id=":9_0" function="internal">
        <lane id=":9_0_0" index="0" disallow="pedestrian tram rail_urban rail rail_electric rail_fast ship" speed="20.84" length="0.47" width="4.00" shape="282.01,639.10 281.97,638.97 281.93,638.88 281.89,638.79 281.82,638.67"/>
    </edge>

    <edge id="-260.0.00" from="1" to="2" priority="1" type="driving" shape="278.31,210.17 283.09,218.63 283.79,220.04 284.49,221.77 285.17,223.69 285.82,225.69 286.40,227.65 286.91,229.45 287.32,230.98 287.66,232.42 288.02,234.14 288.38,236.03 288.72,237.97 289.02,239.87 289.25,241.61 289.40,243.09 289.47,244.84 289.45,246.95 289.37,249.19 289.23,251.30 289.05,253.04 288.81,254.60 288.46,256.45 288.03,258.44 287.58,260.42 287.12,262.25 286.71,263.77 286.16,265.37 285.41,267.26 284.61,269.13 283.92,270.67 283.21,272.18 282.36,273.97 281.41,275.91 280.43,277.91 279.47,279.84 278.58,281.61 277.82,283.10 277.12,284.38 276.23,285.89 275.34,287.40 274.59,288.64 273.72,290.08 272.69,291.77 271.56,293.62 270.40,295.52 269.27,297.37 268.23,299.06 267.35,300.49 266.62,301.60 265.76,302.90 265.09,304.05 264.38,305.55 263.56,307.33 262.67,309.28 261.79,311.29 260.94,313.26 260.20,315.07 259.61,316.63 259.07,318.27 258.48,320.27 257.92,322.40 257.45,324.43 257.15,326.13 257.00,327.83 256.93,329.89 256.92,332.07 256.95,334.14 257.00,335.85 257.05,337.50 257.12,339.48 257.23,341.61 257.38,343.73 257.60,345.68 257.90,347.30 258.37,348.80 259.06,350.54 259.88,352.40 260.75,354.23 261.59,355.92 262.32,357.32 263.05,358.63 263.95,360.16 264.97,361.82 266.02,363.52 267.06,365.16 268.01,366.67 268.82,367.94 269.71,369.36 270.77,371.04 271.94,372.86 273.14,374.74 274.32,376.56 275.40,378.22 276.33,379.61 324.69,451.02 325.64,452.40 326.78,454.03 328.03,455.79 329.33,457.60 330.60,459.35 331.78,460.95 332.79,462.30 341.98,474.37 343.02,475.69 344.29,477.20 345.71,478.84 347.17,480.51 348.61,482.13 349.92,483.62 351.03,484.88 351.59,485.46 352.80,486.63 354.22,488.02 355.77,489.53 357.36,491.09 358.92,492.59 360.36,493.96 361.59,495.10 372.63,505.08 373.89,506.19 375.41,507.46 377.09,508.83 378.82,510.23 380.51,511.57 382.07,512.81 383.38,513.85 384.76,514.90 386.40,516.11 387.82,517.10 389.22,518.01 390.88,519.09 392.70,520.26 394.58,521.44 396.42,522.57 398.13,523.58 399.60,524.38 412.81,531.16 414.31,531.92 416.09,532.80 418.04,533.74 420.05,534.70 422.01,535.62 423.81,536.45 425.34,537.14 461.26,553.01 462.80,553.68 464.62,554.45 466.63,555.27 468.69,556.11 470.70,556.91 472.55,557.64 474.12,558.23 489.02,563.77 490.59,564.35 492.46,565.04 494.49,565.78 496.59,566.54 498.62,567.27 500.49,567.94 502.08,568.50 516.42,573.56 518.01,574.12 519.89,574.75 521.94,575.44 524.05,576.15 526.11,576.83 528.00,577.45 529.59,577.98 531.17,578.49 533.07,579.10 535.09,579.74 536.99,580.34 538.58,580.83 540.19,581.31 542.09,581.87 544.17,582.47 546.31,583.09 548.40,583.68 550.30,584.23 551.92,584.69 553.22,585.04 554.75,585.44 556.06,585.77 557.68,586.18 559.61,586.67 561.71,587.20 563.87,587.74 565.97,588.27 567.90,588.74 569.53,589.14 590.77,594.22 592.41,594.60 594.34,595.03 596.46,595.49 598.64,595.95 600.76,596.39 602.70,596.78 604.35,597.09 626.44,601.17 628.10,601.46 630.05,601.78 632.19,602.11 634.40,602.44 636.54,602.74 638.51,603.00 640.17,603.20 668.07,606.28 669.74,606.46 671.72,606.66 673.87,606.87 676.09,607.08 678.25,607.28 680.22,607.46 681.90,607.60 790.36,616.25">
        <lane id="-260.0.00_0" index="0" disallow="pedestrian tram rail_urban rail rail_electric rail_fast ship" speed="13.89" length="779.06" width="4.00" shape="280.05,209.18 284.84,217.66 285.61,219.22 286.36,221.06 287.07,223.05 287.73,225.09 288.32,227.09 288.84,228.92 289.26,230.49 289.61,231.99 289.99,233.75 290.35,235.67 290.69,237.65 291.00,239.58 291.24,241.37 291.40,242.95 291.47,244.81 291.45,247.00 291.37,249.29 291.22,251.46 291.04,253.30 290.78,254.94 290.42,256.84 289.99,258.87 289.52,260.89 289.06,262.76 288.62,264.36 288.04,266.06 287.26,268.02 286.44,269.93 285.74,271.50 285.02,273.04 284.16,274.84 283.21,276.79 282.23,278.79 281.26,280.74 280.36,282.52 279.58,284.04 278.86,285.36 277.96,286.91 277.05,288.42 276.30,289.67 275.43,291.11 274.40,292.81 273.27,294.67 272.11,296.57 270.98,298.42 269.94,300.11 269.04,301.57 268.29,302.71 267.45,303.97 266.86,304.98 266.19,306.39 265.38,308.16 264.50,310.09 263.62,312.09 262.79,314.03 262.06,315.81 261.50,317.30 260.98,318.86 260.41,320.80 259.86,322.88 259.41,324.83 259.13,326.39 258.99,327.95 258.93,329.93 258.92,332.06 258.95,334.10 259.00,335.79 259.05,337.43 259.12,339.39 259.22,341.49 259.37,343.55 259.58,345.39 259.85,346.82 260.26,348.13 260.90,349.77 261.70,351.56 262.55,353.36 263.38,355.01 264.08,356.37 264.78,357.64 265.67,359.13 266.67,360.77 267.72,362.46 268.75,364.09 269.70,365.60 270.51,366.87 271.40,368.29 272.46,369.96 273.62,371.79 274.82,373.66 275.99,375.47 277.07,377.12 277.99,378.50 326.34,449.90 327.28,451.26 328.41,452.87 329.66,454.63 330.95,456.43 332.22,458.17 333.38,459.76 334.38,461.09 343.57,473.16 344.57,474.42 345.82,475.91 347.21,477.53 348.67,479.19 350.10,480.81 351.42,482.29 352.51,483.53 353.00,484.04 354.20,485.20 355.62,486.59 357.16,488.10 358.75,489.65 360.30,491.15 361.72,492.50 362.94,493.62 373.97,503.60 375.19,504.67 376.69,505.92 378.35,507.28 380.07,508.66 381.76,510.01 383.31,511.24 384.61,512.27 385.96,513.30 387.56,514.49 388.93,515.44 390.31,516.33 391.97,517.41 393.78,518.57 395.64,519.74 397.45,520.86 399.12,521.84 400.53,522.61 413.72,529.38 415.20,530.13 416.96,531.00 418.90,531.94 420.90,532.89 422.85,533.81 424.64,534.63 426.15,535.32 462.06,551.18 463.58,551.84 465.39,552.60 467.38,553.42 469.44,554.26 471.44,555.05 473.27,555.77 474.82,556.36 489.71,561.90 491.28,562.48 493.14,563.16 495.18,563.90 497.27,564.66 499.30,565.39 501.16,566.06 502.74,566.62 517.09,571.68 518.66,572.22 520.53,572.86 522.58,573.55 524.68,574.25 526.74,574.93 528.62,575.55 530.21,576.07 531.79,576.59 533.68,577.20 535.69,577.84 537.59,578.43 539.16,578.92 540.76,579.39 542.65,579.95 544.73,580.55 546.87,581.17 548.95,581.76 550.85,582.31 552.45,582.76 553.73,583.11 555.25,583.50 556.55,583.83 558.18,584.24 560.10,584.73 562.20,585.26 564.35,585.80 566.45,586.33 568.37,586.80 569.99,587.20 591.23,592.27 592.85,592.65 594.77,593.08 596.88,593.53 599.05,593.99 601.16,594.43 603.09,594.82 604.72,595.13 626.80,599.20 628.43,599.49 630.37,599.81 632.49,600.13 634.68,600.46 636.81,600.76 638.76,601.01 640.40,601.21 668.29,604.29 669.95,604.47 671.92,604.67 674.07,604.88 676.28,605.09 678.43,605.29 680.40,605.47 682.06,605.60 790.52,614.25" type="driving"/>
    </edge>
    <edge id="-261.0.00" from="3" to="4" priority="1" type="driving" shape="1053.12,705.44 1046.32,703.82 1044.83,703.35 1043.13,702.63 1041.30,701.76 1039.45,700.80 1037.65,699.84 1036.01,698.96 1034.61,698.25 1033.26,697.58 1031.66,696.77 1029.94,695.90 1028.21,695.02 1026.62,694.20 1025.28,693.52 1005.35,683.43 1003.84,682.73 1002.02,681.98 1000.00,681.21 997.92,680.46 995.88,679.75 994.01,679.11 992.43,678.57 990.97,678.14 989.23,677.71 987.75,677.37 986.11,677.00 984.17,676.57 982.06,676.11 979.88,675.64 977.76,675.20 975.82,674.82 974.17,674.52 959.87,672.19 958.21,671.94 956.24,671.66 954.09,671.38 951.88,671.12 949.73,670.87 947.76,670.67 946.09,670.52 834.14,661.53 832.46,661.39 830.48,661.23 828.32,661.06 826.10,660.88 823.94,660.70 821.97,660.54 820.29,660.40 747.42,654.33 745.75,654.20 743.77,654.05 741.61,653.88 739.39,653.72 737.23,653.56 735.25,653.42 733.57,653.31 682.72,650.03 681.04,649.92 679.06,649.78 676.90,649.64 674.68,649.49 672.51,649.34 670.53,649.21 668.86,649.09 613.83,645.21 612.15,645.09 610.18,644.94 608.02,644.77 605.79,644.60 603.64,644.43 601.66,644.27 599.98,644.13 565.17,641.16 563.49,641.01 561.52,640.82 559.36,640.60 557.15,640.37 554.99,640.15 553.02,639.94 551.35,639.76 549.88,639.60 548.13,639.40 546.23,639.18 544.34,638.95 542.59,638.74 541.12,638.56 539.46,638.34 537.49,638.08 535.34,637.79 533.14,637.49 530.99,637.19 529.03,636.90 527.37,636.65 508.02,633.54 506.36,633.27 504.40,632.95 502.27,632.60 500.07,632.24 497.93,631.89 495.97,631.57 494.31,631.29 440.97,622.37 439.32,622.09 437.36,621.78 435.22,621.43 433.02,621.09 430.88,620.75 428.92,620.45 427.25,620.20 363.67,610.78 362.03,610.53 360.04,610.21 358.06,609.88 356.42,609.61 354.95,609.36 353.22,609.06 351.75,608.78 337.80,605.85 336.29,605.49 334.52,604.99 332.60,604.40 330.64,603.78 328.73,603.16 326.98,602.59 325.50,602.13 312.22,598.08">
        <lane id="-261.0.00_0" index="0" disallow="pedestrian tram rail_urban rail rail_electric rail_fast ship" speed="13.89" length="754.18" width="4.00" shape="1054.05,707.71 1045.79,705.75 1044.15,705.23 1042.31,704.46 1040.41,703.55 1038.52,702.57 1036.71,701.61 1035.08,700.74 1033.70,700.03 1032.37,699.37 1030.76,698.56 1029.03,697.68 1027.30,696.80 1025.71,695.98 1024.37,695.31 1004.45,685.22 1003.04,684.56 1001.28,683.84 999.31,683.09 997.25,682.35 995.23,681.64 993.36,681.00 991.82,680.47 990.45,680.07 988.77,679.65 987.31,679.32 985.67,678.95 983.74,678.53 981.63,678.06 979.47,677.60 977.37,677.16 975.45,676.78 973.83,676.49 959.55,674.16 957.92,673.92 955.98,673.65 953.85,673.37 951.65,673.10 949.52,672.86 947.57,672.66 945.92,672.51 833.98,663.52 832.30,663.39 830.32,663.23 828.16,663.05 825.94,662.87 823.78,662.69 821.80,662.53 820.13,662.39 747.26,656.33 745.59,656.19 743.62,656.04 741.46,655.88 739.24,655.71 737.09,655.56 735.11,655.42 733.44,655.31 682.59,652.02 680.91,651.91 678.93,651.78 676.76,651.64 674.54,651.48 672.38,651.34 670.40,651.20 668.72,651.08 613.69,647.20 612.01,647.08 610.02,646.93 607.86,646.77 605.64,646.60 603.48,646.42 601.49,646.26 599.81,646.12 565.00,643.15 563.31,643.00 561.32,642.81 559.16,642.59 556.94,642.36 554.78,642.14 552.81,641.93 551.13,641.75 549.66,641.58 547.90,641.38 546.00,641.16 544.10,640.94 542.34,640.73 540.87,640.54 539.20,640.32 537.23,640.06 535.07,639.77 532.86,639.47 530.71,639.17 528.73,638.88 527.06,638.62 507.70,635.51 506.04,635.25 504.08,634.93 501.94,634.58 499.74,634.22 497.60,633.86 495.65,633.54 493.98,633.26 440.64,624.34 438.99,624.07 437.04,623.75 434.90,623.41 432.71,623.06 430.57,622.73 428.62,622.43 426.96,622.18 363.38,612.76 361.71,612.51 359.72,612.18 357.74,611.85 356.09,611.58 354.61,611.33 352.86,611.03 351.36,610.74 337.38,607.81 335.78,607.42 333.96,606.91 332.01,606.31 330.03,605.68 328.11,605.06 326.37,604.50 324.90,604.04 311.64,599.99" type="driving"/>
    </edge>
    <edge id="-262.0.00" from="262.begin" to="5" priority="1" type="driving" shape="75.03,499.99 78.81,505.30 79.92,506.61 81.43,508.04 83.12,509.46 84.78,510.72 86.20,511.70 87.48,512.47 88.99,513.31 90.66,514.20 92.43,515.11 94.24,516.01 96.03,516.90 97.73,517.73 99.28,518.50 100.62,519.16 101.99,519.88 103.65,520.74 105.41,521.63 107.09,522.43 108.52,523.02 175.34,547.16 176.83,547.72 178.57,548.38 180.47,549.13 182.45,549.90 184.43,550.68 186.34,551.42 188.08,552.08 189.57,552.63 191.08,553.15 192.80,553.76 194.70,554.41 196.70,555.10 198.77,555.80 200.84,556.49 202.85,557.14 204.76,557.74 206.51,558.26 208.05,558.69 209.50,559.05 211.19,559.42 213.06,559.80 215.02,560.18 217.02,560.55 218.99,560.89 220.87,561.21 222.58,561.47 224.06,561.69 225.69,561.90 227.63,562.14 229.73,562.35 231.84,562.50 233.79,562.55 235.41,562.46 238.23,562.12">
        <lane id="-262.0.00_0" index="0" disallow="pedestrian tram rail_urban rail rail_electric rail_fast ship" speed="27.78" length="175.50" width="4.00" shape="76.66,498.84 80.38,504.07 81.37,505.23 82.76,506.55 84.37,507.90 85.95,509.11 87.29,510.02 88.48,510.74 89.94,511.55 91.58,512.42 93.34,513.32 95.13,514.22 96.92,515.10 98.62,515.94 100.17,516.71 101.52,517.38 102.91,518.10 104.56,518.96 106.29,519.83 107.91,520.60 109.24,521.16 176.02,545.28 177.54,545.85 179.29,546.52 181.20,547.26 183.18,548.04 185.16,548.82 187.05,549.55 188.78,550.21 190.25,550.74 191.74,551.27 193.46,551.87 195.35,552.52 197.35,553.21 199.40,553.90 201.46,554.59 203.46,555.23 205.35,555.83 207.07,556.34 208.56,556.75 209.96,557.10 211.61,557.46 213.45,557.84 215.39,558.22 217.37,558.58 219.33,558.92 221.19,559.23 222.88,559.50 224.34,559.71 225.93,559.92 227.85,560.15 229.90,560.35 231.94,560.50 233.76,560.54 235.24,560.46 238.00,560.13" type="driving"/>
    </edge>
    <edge id="-263.0.00" from="4" to="3" priority="1" type="driving" shape="312.22,598.08 325.49,602.13 326.98,602.59 328.73,603.16 330.64,603.78 332.60,604.40 334.52,604.99 336.29,605.49 337.80,605.85 351.75,608.78 353.22,609.06 354.95,609.36 356.42,609.61 358.06,609.88 360.04,610.21 362.03,610.53 363.67,610.78 427.25,620.20 428.92,620.45 430.88,620.75 433.02,621.09 435.22,621.43 437.36,621.78 439.32,622.09 440.97,622.37 494.31,631.29 495.97,631.57 497.93,631.89 500.07,632.24 502.27,632.60 504.40,632.95 506.36,633.27 508.02,633.54 527.37,636.65 529.03,636.90 530.99,637.19 533.14,637.49 535.34,637.79 537.49,638.08 539.46,638.34 541.12,638.56 542.59,638.74 544.34,638.95 546.23,639.18 548.13,639.40 549.88,639.60 551.35,639.76 553.02,639.94 554.99,640.15 557.15,640.37 559.36,640.60 561.52,640.82 563.49,641.01 565.17,641.16 599.98,644.13 601.66,644.27 603.64,644.43 605.79,644.60 608.02,644.77 610.18,644.94 612.15,645.09 613.83,645.21 668.86,649.09 670.53,649.21 672.51,649.34 674.68,649.49 676.90,649.64 679.06,649.78 681.04,649.92 682.72,650.03 733.57,653.31 735.25,653.42 737.23,653.56 739.39,653.72 741.61,653.88 743.77,654.05 745.75,654.20 747.42,654.33 820.29,660.40 821.97,660.54 823.94,660.70 826.10,660.88 828.32,661.06 830.48,661.23 832.46,661.39 834.14,661.53 946.09,670.52 947.76,670.67 949.73,670.87 951.88,671.12 954.09,671.38 956.24,671.66 958.21,671.94 959.87,672.19 974.17,674.52 975.82,674.82 977.76,675.20 979.88,675.64 982.06,676.11 984.17,676.57 986.11,677.00 987.75,677.37 989.23,677.71 990.97,678.14 992.43,678.57 994.01,679.11 995.88,679.75 997.92,680.46 1000.00,681.21 1002.02,681.98 1003.84,682.73 1005.35,683.43 1025.28,693.52 1026.62,694.20 1028.21,695.02 1029.94,695.90 1031.66,696.77 1033.26,697.58 1034.61,698.25 1036.01,698.96 1037.65,699.84 1039.45,700.80 1041.30,701.76 1043.13,702.63 1044.83,703.35 1046.32,703.82 1053.12,705.44">