<?xml version="1.0" encoding="UTF-8"?>

<!-- generated on 2022-02-15 14:20:57 by Eclipse SUMO netconvert Version 1.11.0
<configuration xmlns:xsi="http://www.w3.org/2001/XMLSchema-instance" xsi:noNamespaceSchemaLocation="http://sumo.dlr.de/xsd/netconvertConfiguration.xsd">

    <input>
        <opendrive-files value="./map_xodr/pont_toulouse.xodr"/>
    </input>

    <output>
        <output-file value="./map_net_xml/pont_toulouse.net.xml"/>
    </output>

    <processing>
        <geometry.max-grade.fix value="false"/>
    </processing>

    <tls_building>
        <tls.left-green.time value="0"/>
    </tls_building>

    <junctions>
        <rectangular-lane-cut value="true"/>
    </junctions>

    <report>
        <aggregate-warnings value="5"/>
    </report>

</configuration>
-->

<net version="1.9" junctionCornerDetail="5" rectangularLaneCut="true" limitTurnSpeed="5.50" xmlns:xsi="http://www.w3.org/2001/XMLSchema-instance" xsi:noNamespaceSchemaLocation="http://sumo.dlr.de/xsd/net_file.xsd">

    <location netOffset="0.93,1.64" convBoundary="0.00,0.00,1080.65,489.06" origBoundary="-0.93,-1.64,1079.72,487.42" projParameter="!"/>

    <type id="bidirectional" priority="1" speed="1.39" disallow="pedestrian tram rail_urban rail rail_electric rail_fast ship" width="3.65"/>
    <type id="border" priority="0" speed="1.39" disallow="all" discard="1" width="0.10"/>
    <type id="driving" priority="1" speed="13.89" disallow="pedestrian tram rail_urban rail rail_electric rail_fast ship" width="3.65"/>
    <type id="entry" priority="1" speed="22.22" disallow="pedestrian tram rail_urban rail rail_electric rail_fast ship" width="3.65"/>
    <type id="exit" priority="1" speed="22.22" disallow="pedestrian tram rail_urban rail rail_electric rail_fast ship" width="3.65"/>
    <type id="median" priority="0" speed="1.39" disallow="all" discard="1" width="0.10"/>
    <type id="mwyEntry" priority="1" speed="22.22" allow="private emergency authority army vip passenger hov taxi bus coach delivery truck trailer motorcycle evehicle custom1 custom2" width="3.65"/>
    <type id="mwyExit" priority="1" speed="22.22" allow="private emergency authority army vip passenger hov taxi bus coach delivery truck trailer motorcycle evehicle custom1 custom2" width="3.65"/>
    <type id="none" priority="0" speed="1.39" disallow="all" discard="1" width="1.00"/>
    <type id="offRamp" priority="1" speed="22.22" allow="private emergency authority army vip passenger hov taxi bus coach delivery truck trailer motorcycle evehicle custom1 custom2" width="3.65"/>
    <type id="onRamp" priority="1" speed="22.22" allow="private emergency authority army vip passenger hov taxi bus coach delivery truck trailer motorcycle evehicle custom1 custom2" width="3.65"/>
    <type id="parking" priority="1" speed="1.39" disallow="pedestrian tram rail_urban rail rail_electric rail_fast ship" width="2.50"/>
    <type id="rail" priority="3" speed="33.33" allow="rail_urban rail rail_electric rail_fast" width="3.65"/>
    <type id="restricted" priority="0" speed="13.89" disallow="all" width="3.65"/>
    <type id="roadWorks" priority="0" speed="1.39" allow="authority" width="3.65"/>
    <type id="shoulder" priority="0" speed="1.39" disallow="all" discard="1" width="1.00"/>
    <type id="special1" priority="1" speed="22.22" allow="custom1" discard="1" width="3.65"/>
    <type id="special2" priority="1" speed="22.22" allow="custom2" discard="1" width="3.65"/>
    <type id="special3" priority="1" speed="22.22" allow="custom1 custom2" discard="1" width="3.65"/>
    <type id="stop" priority="1" speed="13.89" disallow="pedestrian tram rail_urban rail rail_electric rail_fast ship" width="3.65"/>
    <type id="tram" priority="2" speed="13.89" allow="tram" width="3.65"/>

    <edge id=":1_0" function="internal">
        <lane id=":1_0_0" index="0" disallow="pedestrian tram rail_urban rail rail_electric rail_fast ship" speed="13.89" length="25.69" width="4.00" shape="971.11,306.00 966.76,301.26 962.75,297.67 958.44,293.62 953.23,287.53">
            <param key="signalID" value="10"/>
        </lane>
        <lane id=":1_0_1" index="1" disallow="pedestrian tram rail_urban rail rail_electric rail_fast ship" speed="13.89" length="25.69" width="4.00" shape="974.22,303.48 969.88,298.75 965.88,295.18 961.59,291.15 956.40,285.09">
            <param key="signalID" value="10"/>
        </lane>
    </edge>
    <edge id=":1_2" function="internal">
        <lane id=":1_2_0" index="0" disallow="pedestrian tram rail_urban rail rail_electric rail_fast ship" speed="7.78" length="5.05" width="4.00" shape="974.22,303.48 972.98,300.85 973.32,298.74">
            <param key="signalID" value="8"/>
        </lane>
    </edge>
    <edge id=":1_3" function="internal">
        <lane id=":1_3_0" index="0" disallow="pedestrian tram rail_urban rail rail_electric rail_fast ship" speed="4.08" length="3.06" width="4.00" shape="974.22,303.48 974.05,301.69 974.52,300.67 974.65,300.64">
            <param key="signalID" value="8"/>
        </lane>
    </edge>
    <edge id=":1_10" function="internal">
        <lane id=":1_10_0" index="0" disallow="pedestrian tram rail_urban rail rail_electric rail_fast ship" speed="7.78" length="9.06" width="4.00" shape="973.32,298.74 973.42,298.10 975.55,295.23 979.37,292.25">
            <param key="signalID" value="8"/>
        </lane>
    </edge>
    <edge id=":1_11" function="internal">
        <lane id=":1_11_0" index="0" disallow="pedestrian tram rail_urban rail rail_electric rail_fast ship" speed="4.08" length="2.78" width="4.00" shape="974.65,300.64 975.61,300.43 977.33,300.97">
            <param key="signalID" value="8"/>
        </lane>
    </edge>
    <edge id=":1_4" function="internal">
        <lane id=":1_4_0" index="0" disallow="pedestrian tram rail_urban rail rail_electric rail_fast ship" speed="8.46" length="14.81" width="4.00" shape="962.74,280.21 966.07,283.87 969.24,285.98 972.24,286.52 975.07,285.50">
            <param key="signalID" value="9"/>
        </lane>
    </edge>
    <edge id=":1_5" function="internal">
        <lane id=":1_5_0" index="0" disallow="pedestrian tram rail_urban rail rail_electric rail_fast ship" speed="13.89" length="25.36" width="4.00" shape="962.74,280.21 977.33,300.97">
            <param key="signalID" value="9"/>
        </lane>
    </edge>
    <edge id=":1_6" function="internal">
        <lane id=":1_6_0" index="0" disallow="pedestrian tram rail_urban rail rail_electric rail_fast ship" speed="7.15" length="11.93" width="4.00" shape="950.10,300.23 952.13,298.41 952.80,296.09 952.11,293.28 950.06,289.97">
            <param key="signalID" value="10"/>
        </lane>
    </edge>
    <edge id=":1_7" function="internal">
        <lane id=":1_7_0" index="0" disallow="pedestrian tram rail_urban rail rail_electric rail_fast ship" speed="13.89" length="29.58" width="4.00" shape="950.10,300.23 956.25,297.47 962.28,295.68 969.00,293.33 977.22,288.88">
            <param key="signalID" value="10"/>
        </lane>
        <lane id=":1_7_1" index="1" disallow="pedestrian tram rail_urban rail rail_electric rail_fast ship" speed="13.89" length="29.58" width="4.00" shape="952.11,303.69 958.28,300.92 964.34,299.11 971.10,296.74 979.37,292.25">
            <param key="signalID" value="10"/>
        </lane>
    </edge>
    <edge id=":1_9" function="internal">
        <lane id=":1_9_0" index="0" disallow="pedestrian tram rail_urban rail rail_electric rail_fast ship" speed="11.65" length="27.39" width="4.00" shape="952.11,303.69 960.68,299.45 967.74,297.58 973.29,298.09 977.33,300.97">
            <param key="signalID" value="10"/>
        </lane>
    </edge>
    <edge id=":2_0" function="internal">
        <lane id=":2_0_0" index="0" disallow="pedestrian tram rail_urban rail rail_electric rail_fast ship" speed="7.11" length="9.97" width="4.00" shape="930.13,264.06 928.10,261.97 925.98,260.90 923.78,260.85 921.49,261.81">
            <param key="signalID" value="13"/>
        </lane>
    </edge>
    <edge id=":2_1" function="internal">
        <lane id=":2_1_0" index="0" disallow="pedestrian tram rail_urban rail rail_electric rail_fast ship" speed="11.11" length="18.05" width="4.00" shape="930.13,264.06 927.82,259.47 927.32,255.61 926.53,252.03 923.37,248.28">
            <param key="signalID" value="11"/>
        </lane>
        <lane id=":2_1_1" index="1" disallow="pedestrian tram rail_urban rail rail_electric rail_fast ship" speed="11.11" length="18.05" width="4.00" shape="933.31,261.62 930.81,256.81 930.17,252.80 929.23,249.07 925.85,245.14">
            <param key="signalID" value="11"/>
        </lane>
    </edge>
    <edge id=":2_3" function="internal">
        <lane id=":2_3_0" index="0" disallow="pedestrian tram rail_urban rail rail_electric rail_fast ship" speed="8.28" length="15.31" width="4.00" shape="948.84,241.96 944.74,245.44 942.36,248.67 941.72,251.62 942.82,254.30">
            <param key="signalID" value="12"/>
        </lane>
    </edge>
    <edge id=":2_4" function="internal">
        <lane id=":2_4_0" index="0" disallow="pedestrian tram rail_urban rail rail_electric rail_fast ship" speed="13.89" length="33.55" width="4.00" shape="948.84,241.96 921.49,261.81">
            <param key="signalID" value="12"/>
        </lane>
        <lane id=":2_4_1" index="1" disallow="pedestrian tram rail_urban rail rail_electric rail_fast ship" speed="13.89" length="33.55" width="4.00" shape="946.49,238.72 919.55,258.31">
            <param key="signalID" value="12"/>
        </lane>
    </edge>
    <edge id=":2_6" function="internal">
        <lane id=":2_6_0" index="0" disallow="pedestrian tram rail_urban rail rail_electric rail_fast ship" speed="11.11" length="22.79" width="4.00" shape="946.49,238.72 939.59,243.21 933.85,245.78 929.27,246.42 925.85,245.14">
            <param key="signalID" value="12"/>
        </lane>
    </edge>
    <edge id=":2_7" function="internal">
        <lane id=":2_7_0" index="0" disallow="all" speed="11.02" length="20.97" width="4.00" shape="933.30,235.73 937.94,242.24 936.52,248.81 932.30,253.43">
            <param key="signalID" value="13"/>
        </lane>
    </edge>
    <edge id=":2_8" function="internal">
        <lane id=":2_8_0" index="0" disallow="pedestrian tram rail_urban rail rail_electric rail_fast ship" speed="11.11" length="19.20" width="4.00" shape="930.82,238.87 935.09,242.75 937.46,245.95 939.51,249.47 942.82,254.30">
            <param key="signalID" value="13"/>
        </lane>
        <lane id=":2_8_1" index="1" disallow="pedestrian tram rail_urban rail rail_electric rail_fast ship" speed="11.11" length="19.20" width="4.00" shape="928.33,242.00 932.38,245.70 934.60,248.77 936.52,252.14 939.65,256.74">
            <param key="signalID" value="13"/>
        </lane>
    </edge>
    <edge id=":2_10" function="internal">
        <lane id=":2_10_0" index="0" disallow="pedestrian tram rail_urban rail rail_electric rail_fast ship" speed="8.85" length="5.95" width="4.00" shape="928.33,242.00 930.62,245.27 930.26,247.20">
            <param key="signalID" value="13"/>
        </lane>
    </edge>
    <edge id=":2_11" function="internal">
        <lane id=":2_11_0" index="0" disallow="all" speed="11.02" length="13.72" width="4.00" shape="932.30,253.43 930.54,255.36 921.49,261.81">
            <param key="signalID" value="13"/>
        </lane>
    </edge>
    <edge id=":2_12" function="internal">
        <lane id=":2_12_0" index="0" disallow="pedestrian tram rail_urban rail rail_electric rail_fast ship" speed="8.85" length="15.88" width="4.00" shape="930.26,247.20 929.92,249.07 926.23,253.42 919.55,258.31">
            <param key="signalID" value="13"/>
        </lane>
    </edge>
    <edge id=":3_0" function="internal">
        <lane id=":3_0_0" index="0" disallow="pedestrian tram rail_urban rail rail_electric rail_fast ship" speed="4.08" length="5.84" width="4.00" shape="882.04,210.48 881.49,208.77 881.72,207.67 882.73,207.20 884.53,207.35"/>
    </edge>
    <edge id=":4_0" function="internal">
        <lane id=":4_0_0" index="0" disallow="pedestrian tram rail_urban rail rail_electric rail_fast ship" speed="13.89" length="0.40" width="4.00" shape="976.72,312.94 976.47,312.63">
            <param key="signalID" value="7"/>
        </lane>
        <lane id=":4_0_1" index="1" disallow="pedestrian tram rail_urban rail rail_electric rail_fast ship" speed="13.89" length="0.40" width="4.00" shape="979.83,310.43 979.58,310.12">
            <param key="signalID" value="7"/>
        </lane>
    </edge>
    <edge id=":4_2" function="internal">
        <lane id=":4_2_0" index="0" disallow="pedestrian tram rail_urban rail rail_electric rail_fast ship" speed="13.89" length="0.40" width="4.00" shape="982.69,307.60 982.94,307.91">
            <param key="signalID" value="7"/>
        </lane>
    </edge>
    <edge id=":5_0" function="internal">
        <lane id=":5_0_0" index="0" disallow="pedestrian tram rail_urban rail rail_electric rail_fast ship" speed="13.89" length="2.48" width="4.00" shape="1043.37,395.07 1041.81,393.15">
            <param key="signalID" value="15"/>
        </lane>
        <lane id=":5_0_1" index="1" disallow="pedestrian tram rail_urban rail rail_electric rail_fast ship" speed="13.89" length="2.48" width="4.00" shape="1046.47,392.54 1044.90,390.62">
            <param key="signalID" value="15"/>
        </lane>
    </edge>
    <edge id=":5_2" function="internal">
        <lane id=":5_2_0" index="0" disallow="pedestrian tram rail_urban rail rail_electric rail_fast ship" speed="13.89" length="2.47" width="4.00" shape="1048.00,388.09 1049.57,390.01">
            <param key="signalID" value="15"/>
        </lane>
    </edge>
    <edge id=":6_0" function="internal">
        <lane id=":6_0_0" index="0" disallow="pedestrian tram rail_urban rail rail_electric rail_fast ship" speed="4.08" length="5.84" width="4.00" shape="1053.46,394.78 1053.64,396.57 1053.18,397.59 1052.09,397.84 1050.37,397.31"/>
    </edge>
    <edge id=":7_0" function="internal">
        <lane id=":7_0_0" index="0" disallow="pedestrian tram rail_urban rail rail_electric rail_fast ship" speed="13.89" length="10.80" width="4.00" shape="931.49,311.11 940.82,305.64"/>
        <lane id=":7_0_1" index="1" disallow="pedestrian tram rail_urban rail rail_electric rail_fast ship" speed="13.89" length="10.80" width="4.00" shape="933.53,314.55 942.83,309.09"/>
    </edge>
    <edge id=":7_2" function="internal">
        <lane id=":7_2_0" index="0" disallow="pedestrian tram rail_urban rail rail_electric rail_fast ship" speed="7.05" length="9.11" width="4.00" shape="933.53,314.55 935.66,313.70 937.71,313.72 939.70,314.60 941.61,316.35"/>
    </edge>

    <edge id="-120.0.00" from="1" to="2" priority="1" type="driving" shape="957.99,283.87 938.06,257.96">
        <lane id="-120.0.00_0" index="0" disallow="pedestrian tram rail_urban rail rail_electric rail_fast ship" speed="13.89" length="32.69" width="4.00" shape="950.06,289.97 930.13,264.06" type="driving"/>
        <lane id="-120.0.00_1" index="1" disallow="pedestrian tram rail_urban rail rail_electric rail_fast ship" speed="13.89" length="32.69" width="4.00" shape="953.23,287.53 933.31,261.62" type="driving"/>
        <lane id="-120.0.00_2" index="2" disallow="pedestrian tram rail_urban rail rail_electric rail_fast ship" speed="13.89" length="32.69" width="4.00" shape="956.40,285.09 936.48,259.18" type="driving"/>
    </edge>
    <edge id="-121.0.00" from="3" to="2" priority="1" type="restricted|driving|driving" shape="883.28,208.91 887.23,212.04 888.38,212.95 889.77,214.05 891.23,215.21 892.62,216.31 893.77,217.22 906.89,227.59 908.04,228.50 909.43,229.60 910.89,230.76 912.28,231.85 913.43,232.76 927.59,243.96">
        <lane id="-121.0.00_0" index="0" disallow="all" speed="8.33" length="55.86" width="4.00" shape="889.49,201.08 893.44,204.21 894.59,205.11 895.98,206.21 897.44,207.37 898.82,208.46 899.97,209.37 913.09,219.75 914.24,220.66 915.63,221.76 917.09,222.91 918.48,224.01 919.63,224.92 933.30,235.73" type="restricted"/>
        <lane id="-121.0.00_1" index="1" disallow="pedestrian tram rail_urban rail rail_electric rail_fast ship" speed="8.33" length="55.86" width="4.00" shape="887.01,204.21 890.96,207.34 892.11,208.25 893.49,209.35 894.96,210.50 896.34,211.60 897.49,212.51 910.61,222.89 911.76,223.80 913.15,224.89 914.61,226.05 916.00,227.15 917.15,228.06 930.82,238.87" type="driving"/>
        <lane id="-121.0.00_2" index="2" disallow="pedestrian tram rail_urban rail rail_electric rail_fast ship" speed="8.33" length="55.86" width="4.00" shape="884.53,207.35 888.48,210.48 889.63,211.39 891.01,212.48 892.47,213.64 893.86,214.74 895.01,215.65 908.13,226.03 909.28,226.93 910.67,228.03 912.13,229.19 913.52,230.28 914.67,231.19 928.33,242.00" type="driving"/>
    </edge>
    <edge id="-122.0.00" from="4" to="1" priority="1" type="driving" shape="981.14,308.86 975.37,301.73 974.99,301.25">
        <lane id="-122.0.00_0" index="0" disallow="pedestrian tram rail_urban rail rail_electric rail_fast ship" speed="13.89" length="8.53" width="4.00" shape="976.47,312.63 971.11,306.00" type="driving"/>
        <lane id="-122.0.00_1" index="1" disallow="pedestrian tram rail_urban rail rail_electric rail_fast ship" speed="13.89" length="8.53" width="4.00" shape="979.58,310.12 974.22,303.48" type="driving"/>
    </edge>
    <edge id="-123.0.00" from="5" to="4" priority="1" type="driving" shape="1046.45,389.36 1023.90,361.76 1022.87,360.48 1021.63,358.95 1020.30,357.30 1018.96,355.65 1017.73,354.12 1016.70,352.84 981.39,309.17">
        <lane id="-123.0.00_0" index="0" disallow="pedestrian tram rail_urban rail rail_electric rail_fast ship" speed="13.89" length="103.28" width="4.00" shape="1041.81,393.15 1019.26,365.55 1018.21,364.26 1016.96,362.72 1015.63,361.07 1014.29,359.41 1013.06,357.89 1012.03,356.61 976.72,312.94" type="driving"/>
        <lane id="-123.0.00_1" index="1" disallow="pedestrian tram rail_urban rail rail_electric rail_fast ship" speed="13.89" length="103.28" width="4.00" shape="1044.90,390.62 1022.36,363.02 1021.31,361.74 1020.08,360.21 1018.74,358.56 1017.41,356.90 1016.17,355.37 1015.14,354.10 979.83,310.43" type="driving"/>
    </edge>
    <edge id="-124.0.00" from="6" to="5" priority="1" type="driving" shape="1051.91,396.04 1048.02,391.27">
        <lane id="-124.0.00_0" index="0" disallow="pedestrian tram rail_urban rail rail_electric rail_fast ship" speed="13.89" length="6.16" width="4.00" shape="1047.27,399.84 1043.37,395.07" type="driving"/>
        <lane id="-124.0.00_1" index="1" disallow="pedestrian tram rail_urban rail rail_electric rail_fast ship" speed="13.89" length="6.16" width="4.00" shape="1050.37,397.31 1046.47,392.54" type="driving"/>
    </edge>
    <edge id="-125.0.00" from="2" to="1" priority="1" type="driving" shape="938.06,257.96 957.99,283.87">
        <lane id="-125.0.00_0" index="0" disallow="pedestrian tram rail_urban rail rail_electric rail_fast ship" speed="13.89" length="32.69" width="4.00" shape="942.82,254.30 962.74,280.21" type="driving"/>
        <lane id="-125.0.00_1" index="1" disallow="pedestrian tram rail_urban rail rail_electric rail_fast ship" speed="13.89" length="32.69" width="4.00" shape="939.65,256.74 959.57,282.65" type="driving"/>
    </edge>
    <edge id="-126.0.00" from="1" to="126.end" priority="1" type="driving" shape="980.44,293.94 980.53,293.88 981.89,292.99 983.49,291.91 985.22,290.72 986.99,289.49 988.72,288.28 990.29,287.16 991.62,286.22 992.94,285.27 994.52,284.11 996.09,282.93 997.38,281.93 998.68,280.88 1000.22,279.63 1001.89,278.25 1003.60,276.83 1005.27,275.45 1006.78,274.17 1008.06,273.08 1009.40,271.91 1010.99,270.47 1012.56,269.01 1013.84,267.77 1014.96,266.64 1016.27,265.29 1017.69,263.82 1019.14,262.29 1020.54,260.79 1021.80,259.39 1022.85,258.19 1029.13,250.68">
        <lane id="-126.0.00_0" index="0" disallow="pedestrian tram rail_urban rail rail_electric rail_fast ship" speed="13.89" length="63.59" width="4.00" shape="975.07,285.50 976.35,284.67 977.85,283.65 979.53,282.50 981.26,281.29 982.95,280.10 984.51,279.00 985.81,278.08 987.05,277.19 988.56,276.08 990.03,274.97 991.17,274.09 992.38,273.11 993.88,271.89 995.53,270.54 997.21,269.14 998.84,267.78 1000.32,266.54 1001.51,265.52 1002.74,264.45 1004.23,263.09 1005.69,261.75 1006.80,260.66 1007.82,259.64 1009.09,258.33 1010.47,256.90 1011.86,255.43 1013.18,254.02 1014.33,252.75 1015.23,251.71 1021.47,244.26" type="driving"/>
        <lane id="-126.0.00_1" index="1" disallow="pedestrian tram rail_urban rail rail_electric rail_fast ship" speed="13.89" length="63.59" width="4.00" shape="977.22,288.88 978.57,288.00 980.11,286.96 981.80,285.79 983.55,284.57 985.26,283.37 986.82,282.27 988.13,281.34 989.41,280.42 990.94,279.29 992.46,278.15 993.65,277.22 994.90,276.22 996.42,274.98 998.07,273.62 999.77,272.22 1001.41,270.85 1002.91,269.59 1004.13,268.55 1005.40,267.43 1006.94,266.04 1008.44,264.65 1009.62,263.51 1010.67,262.44 1011.96,261.12 1013.36,259.67 1014.77,258.17 1016.13,256.72 1017.32,255.41 1018.28,254.30 1024.53,246.83" type="driving"/>
        <lane id="-126.0.00_2" index="2" disallow="pedestrian tram rail_urban rail rail_electric rail_fast ship" speed="13.89" length="63.59" width="4.00" shape="979.37,292.25 980.79,291.33 982.36,290.26 984.08,289.08 985.85,287.85 987.56,286.64 989.13,285.53 990.46,284.59 991.76,283.65 993.33,282.50 994.88,281.34 996.14,280.36 997.42,279.32 998.95,278.08 1000.62,276.71 1002.33,275.29 1003.98,273.91 1005.49,272.64 1006.75,271.57 1008.06,270.42 1009.64,268.99 1011.19,267.56 1012.43,266.35 1013.53,265.24 1014.83,263.90 1016.25,262.43 1017.69,260.92 1019.07,259.43 1020.31,258.07 1021.32,256.89 1027.60,249.39" type="driving"/>
    </edge>
    <edge id="-127.0.00" from="127.begin" to="2" priority="1" type="driving" shape="1080.65,0.00 1076.42,9.42 1075.73,10.96 1074.92,12.77 1074.03,14.74 1073.12,16.77 1072.23,18.75 1071.42,20.56 1070.73,22.09 1033.40,105.25 1032.75,106.70 1031.99,108.44 1031.17,110.32 1030.35,112.20 1029.59,113.94 1028.96,115.40 1012.79,153.02 1012.13,154.57 1011.33,156.38 1010.45,158.36 1009.55,160.40 1008.66,162.38 1007.86,164.19 1007.17,165.72 1006.57,167.06 1005.85,168.67 1005.12,170.28 1004.49,171.60 1003.73,173.09 1002.83,174.86 1001.84,176.78 1000.81,178.75 999.81,180.67 998.89,182.43 998.10,183.91 997.41,185.16 996.66,186.38 995.73,187.77 994.63,189.41 993.42,191.20 992.17,193.04 990.95,194.82 989.82,196.45 988.85,197.82 988.02,198.93 986.99,200.25 985.94,201.56 985.05,202.62 983.94,203.88 982.63,205.36 981.18,206.97 979.69,208.61 978.23,210.21 976.89,211.67 975.75,212.89 974.66,214.00 973.35,215.27 972.20,216.32 970.94,217.43 969.45,218.73 967.82,220.15 966.13,221.59 964.47,222.98 962.93,224.22 961.60,225.24 945.31,237.11">
        <lane id="-127.0.00_0" index="0" disallow="pedestrian tram rail_urban rail rail_electric rail_fast ship" speed="13.89" length="279.33" width="4.00" shape="1086.12,2.46 1081.89,11.88 1081.20,13.41 1080.39,15.22 1079.50,17.20 1078.59,19.23 1077.70,21.21 1076.89,23.02 1076.20,24.55 1038.87,107.71 1038.24,109.13 1037.48,110.85 1036.66,112.72 1035.85,114.59 1035.10,116.32 1034.48,117.77 1018.31,155.39 1017.62,156.97 1016.82,158.80 1015.94,160.80 1015.03,162.84 1014.14,164.82 1013.33,166.64 1012.65,168.17 1012.05,169.51 1011.32,171.14 1010.56,172.81 1009.87,174.24 1009.08,175.81 1008.17,177.60 1007.16,179.54 1006.13,181.53 1005.12,183.46 1004.20,185.22 1003.38,186.77 1002.59,188.18 1001.72,189.61 1000.72,191.11 999.60,192.77 998.38,194.57 997.12,196.42 995.89,198.23 994.74,199.88 993.71,201.33 992.79,202.57 991.70,203.98 990.58,205.36 989.60,206.53 988.44,207.86 987.10,209.36 985.64,210.99 984.13,212.65 982.66,214.26 981.30,215.74 980.09,217.04 978.88,218.26 977.47,219.64 976.20,220.79 974.89,221.94 973.39,223.26 971.73,224.69 970.00,226.17 968.28,227.61 966.64,228.93 965.19,230.05 948.84,241.96" type="driving"/>
        <lane id="-127.0.00_1" index="1" disallow="pedestrian tram rail_urban rail rail_electric rail_fast ship" speed="13.89" length="279.33" width="4.00" shape="1082.47,0.82 1078.24,10.24 1077.55,11.78 1076.74,13.59 1075.85,15.56 1074.94,17.59 1074.05,19.57 1073.24,21.38 1072.55,22.91 1035.22,106.07 1034.58,107.51 1033.82,109.24 1033.00,111.12 1032.18,113.00 1031.43,114.73 1030.80,116.19 1014.63,153.81 1013.96,155.37 1013.16,157.19 1012.28,159.17 1011.37,161.21 1010.49,163.19 1009.68,165.00 1009.00,166.54 1008.40,167.87 1007.67,169.49 1006.93,171.12 1006.28,172.48 1005.52,174.00 1004.61,175.77 1003.61,177.70 1002.58,179.68 1001.58,181.60 1000.66,183.36 999.86,184.86 999.13,186.17 998.35,187.45 997.39,188.88 996.29,190.53 995.07,192.32 993.82,194.17 992.59,195.96 991.46,197.59 990.47,198.99 989.61,200.14 988.56,201.49 987.49,202.83 986.57,203.93 985.44,205.21 984.12,206.69 982.67,208.31 981.17,209.96 979.71,211.56 978.36,213.02 977.20,214.28 976.07,215.42 974.72,216.73 973.54,217.81 972.26,218.93 970.76,220.24 969.12,221.66 967.42,223.12 965.74,224.52 964.17,225.79 962.79,226.84 946.49,238.72" type="driving"/>
    </edge>
    <edge id="-128.0.00" from="2" to="3" priority="1" type="driving" shape="927.59,243.96 913.43,232.76 912.28,231.85 910.89,230.76 909.43,229.60 908.04,228.50 906.89,227.59 893.77,217.22 892.62,216.31 891.23,215.21 889.77,214.05 888.38,212.95 887.23,212.04 883.28,208.91">
        <lane id="-128.0.00_0" index="0" disallow="pedestrian tram rail_urban rail rail_electric rail_fast ship" speed="8.33" length="55.86" width="4.00" shape="923.37,248.28 909.70,237.47 908.55,236.56 907.17,235.46 905.70,234.31 904.32,233.21 903.17,232.30 890.05,221.92 888.89,221.01 887.51,219.91 886.04,218.76 884.66,217.66 883.51,216.75 879.56,213.62" type="driving"/>
        <lane id="-128.0.00_1" index="1" disallow="pedestrian tram rail_urban rail rail_electric rail_fast ship" speed="8.33" length="55.86" width="4.00" shape="925.85,245.14 912.19,234.33 911.03,233.42 909.65,232.33 908.18,231.17 906.80,230.07 905.65,229.16 892.53,218.78 891.38,217.87 889.99,216.78 888.53,215.62 887.14,214.52 885.99,213.61 882.04,210.48" type="driving"/>
    </edge>
    <edge id="-129.0.00" from="129.begin" to="7" priority="1" type="driving" shape="125.45,489.06 161.13,472.92 162.67,472.24 164.49,471.45 166.48,470.61 168.54,469.75 170.54,468.93 172.39,468.20 173.95,467.59 206.46,455.19 207.79,454.68 209.38,454.06 210.98,453.44 212.31,452.96 276.43,430.71 277.82,430.33 279.53,429.98 281.25,429.67 282.67,429.41 284.41,429.04 286.16,428.68 287.77,428.36 289.69,427.98 291.77,427.56 293.92,427.14 296.00,426.73 297.91,426.35 299.53,426.03 301.07,425.71 302.93,425.33 304.89,424.93 306.75,424.56 308.30,424.29 309.96,424.04 311.92,423.76 314.06,423.47 316.26,423.18 318.41,422.92 320.37,422.69 322.04,422.52 323.71,422.37 325.68,422.23 327.83,422.09 330.04,421.96 332.19,421.84 334.17,421.74 335.84,421.66 337.52,421.60 339.50,421.53 341.66,421.46 343.89,421.40 346.05,421.36 348.03,421.34 349.71,421.35 369.16,421.66 370.80,421.75 372.79,421.92 374.78,422.12 376.42,422.28 378.22,422.43 380.40,422.60 382.57,422.79 384.37,422.95 386.05,423.11 388.02,423.31 390.18,423.53 392.39,423.76 394.54,423.99 396.52,424.20 398.19,424.38 399.69,424.56 401.46,424.77 403.39,425.00 405.38,425.24 407.31,425.48 409.08,425.71 410.58,425.92 412.29,426.18 414.34,426.51 416.51,426.88 418.57,427.23 420.27,427.51 440.71,430.78 442.35,431.05 444.29,431.39 446.40,431.77 448.57,432.17 450.68,432.58 452.61,432.97 454.24,433.32 468.46,436.51 470.10,436.88 472.04,437.32 474.15,437.81 476.32,438.31 478.43,438.79 480.36,439.24 482.00,439.63 527.18,450.27 528.74,450.63 530.58,451.04 532.60,451.47 534.67,451.91 536.68,452.32 538.54,452.69 540.11,452.98 560.47,456.63 561.95,456.91 563.69,457.24 565.60,457.60 567.55,457.97 569.46,458.31 571.21,458.61 572.69,458.82 601.55,462.44 603.22,462.63 605.19,462.84 607.35,463.04 609.57,463.24 611.72,463.41 613.70,463.56 615.38,463.66 632.96,464.55 634.64,464.60 636.62,464.61 638.78,464.60 641.01,464.56 643.17,464.52 645.15,464.48 646.83,464.45 648.81,464.32 650.47,464.13 652.44,463.91 654.59,463.66 656.80,463.41 658.95,463.15 660.91,462.90 662.58,462.68 664.36,462.41 666.51,462.05 668.65,461.67 670.42,461.32 672.06,460.97 673.99,460.54 676.10,460.06 678.27,459.56 680.38,459.07 682.31,458.61 683.94,458.23 685.23,457.88 686.51,457.50 688.11,456.98 690.00,456.37 692.06,455.71 694.17,455.02 696.23,454.34 698.11,453.72 699.71,453.19 700.96,452.76 702.43,452.23 703.66,451.74 705.20,451.08 707.02,450.30 709.01,449.44 711.04,448.54 713.01,447.65 714.80,446.80 716.29,446.04 749.73,427.97 751.06,427.26 752.38,426.54 753.88,425.68 755.68,424.63 757.58,423.52 759.37,422.46 760.85,421.57 776.28,412.12 777.71,411.25 779.41,410.22 781.26,409.10 783.17,407.95 785.03,406.83 786.73,405.81 788.17,404.95 805.13,394.91 806.45,394.11 808.01,393.16 809.70,392.11 811.44,391.02 813.13,389.97 814.68,389.00 816.00,388.19 817.43,387.30 819.17,386.23 820.99,385.10 822.72,384.02 824.16,383.13 825.55,382.26 827.20,381.23 829.00,380.11 830.84,378.96 832.64,377.83 834.29,376.81 835.69,375.96 852.74,365.63 854.14,364.79 855.81,363.80 857.62,362.72 859.42,361.65 861.09,360.65 862.49,359.81 863.82,359.00 865.40,358.03 867.10,356.98 868.80,355.92 870.38,354.95 871.70,354.13 873.19,353.22 874.98,352.12 876.78,351.02 878.27,350.11 879.70,349.23 881.39,348.20 883.24,347.07 885.14,345.90 886.99,344.78 888.69,343.74 890.12,342.87 891.47,342.04 893.05,341.08 894.79,340.02 896.57,338.93 898.31,337.87 899.90,336.91 901.25,336.09 902.69,335.22 904.39,334.20 906.24,333.08 908.15,331.93 910.01,330.82 911.71,329.80 913.15,328.94 934.55,316.27">