<?xml version="1.0" encoding="UTF-8"?>

<!-- generated on 2022-02-02 15:52:51 by Eclipse SUMO netconvert Version 1.11.0
<configuration xmlns:xsi="http://www.w3.org/2001/XMLSchema-instance" xsi:noNamespaceSchemaLocation="http://sumo.dlr.de/xsd/netconvertConfiguration.xsd">

    <input>
        <opendrive-files value=".\script_carla\map_xodr\pont_croisement.xodr"/>
    </input>

    <output>
        <output-file value=".\script_carla\map_net_xml\pont_croisement.net.xml"/>
    </output>

    <processing>
        <geometry.max-grade.fix value="false"/>
    </processing>

    <tls_building>
        <tls.left-green.time value="0"/>
    </tls_building>

    <junctions>
        <rectangular-lane-cut value="true"/>
    </junctions>

    <report>
        <aggregate-warnings value="5"/>
    </report>

</configuration>
-->

<net version="1.9" junctionCornerDetail="5" rectangularLaneCut="true" limitTurnSpeed="5.50" xmlns:xsi="http://www.w3.org/2001/XMLSchema-instance" xsi:noNamespaceSchemaLocation="http://sumo.dlr.de/xsd/net_file.xsd">

    <location netOffset="0.00,0.00" convBoundary="0.00,0.00,545.77,1078.07" origBoundary="-0.00,-0.00,545.77,1078.07" projParameter="!"/>

    <type id="bidirectional" priority="1" speed="1.39" disallow="pedestrian tram rail_urban rail rail_electric rail_fast ship" width="3.65"/>
    <type id="border" priority="0" speed="1.39" disallow="all" discard="1" width="0.10"/>
    <type id="driving" priority="1" speed="13.89" disallow="pedestrian tram rail_urban rail rail_electric rail_fast ship" width="3.65"/>
    <type id="entry" priority="1" speed="22.22" disallow="pedestrian tram rail_urban rail rail_electric rail_fast ship" width="3.65"/>
    <type id="exit" priority="1" speed="22.22" disallow="pedestrian tram rail_urban rail rail_electric rail_fast ship" width="3.65"/>
    <type id="median" priority="0" speed="1.39" disallow="all" discard="1" width="0.10"/>
    <type id="mwyEntry" priority="1" speed="22.22" allow="private emergency authority army vip passenger hov taxi bus coach delivery truck trailer motorcycle evehicle custom1 custom2" width="3.65"/>
    <type id="mwyExit" priority="1" speed="22.22" allow="private emergency authority army vip passenger hov taxi bus coach delivery truck trailer motorcycle evehicle custom1 custom2" width="3.65"/>
    <type id="none" priority="0" speed="1.39" disallow="all" discard="1" width="1.00"/>
    <type id="offRamp" priority="1" speed="22.22" allow="private emergency authority army vip passenger hov taxi bus coach delivery truck trailer motorcycle evehicle custom1 custom2" width="3.65"/>
    <type id="onRamp" priority="1" speed="22.22" allow="private emergency authority army vip passenger hov taxi bus coach delivery truck trailer motorcycle evehicle custom1 custom2" width="3.65"/>
    <type id="parking" priority="1" speed="1.39" disallow="pedestrian tram rail_urban rail rail_electric rail_fast ship" width="2.50"/>
    <type id="rail" priority="3" speed="33.33" allow="rail_urban rail rail_electric rail_fast" width="3.65"/>
    <type id="restricted" priority="0" speed="13.89" disallow="all" width="3.65"/>
    <type id="roadWorks" priority="0" speed="1.39" allow="authority" width="3.65"/>
    <type id="shoulder" priority="0" speed="1.39" disallow="all" discard="1" width="1.00"/>
    <type id="special1" priority="1" speed="22.22" allow="custom1" discard="1" width="3.65"/>
    <type id="special2" priority="1" speed="22.22" allow="custom2" discard="1" width="3.65"/>
    <type id="special3" priority="1" speed="22.22" allow="custom1 custom2" discard="1" width="3.65"/>
    <type id="stop" priority="1" speed="13.89" disallow="pedestrian tram rail_urban rail rail_electric rail_fast ship" width="3.65"/>
    <type id="tram" priority="2" speed="13.89" allow="tram" width="3.65"/>

    <edge id=":1_0" function="internal">
        <lane id=":1_0_0" index="0" disallow="pedestrian tram rail_urban rail rail_electric rail_fast ship" speed="22.22" length="0.30" width="4.00" shape="1.41,10.83 1.32,10.55">
            <param key="signalID" value="28"/>
        </lane>
    </edge>
    <edge id=":1_1" function="internal">
        <lane id=":1_1_0" index="0" disallow="pedestrian tram rail_urban rail rail_electric rail_fast ship" speed="22.22" length="0.30" width="4.00" shape="5.12,9.31 5.22,9.60">
            <param key="signalID" value="28"/>
        </lane>
    </edge>
    <edge id=":10_0" function="internal">
        <lane id=":10_0_0" index="0" disallow="pedestrian tram rail_urban rail rail_electric rail_fast ship" speed="17.66" length="14.69" width="4.00" shape="274.82,404.46 271.96,396.67 271.33,390.31"/>
    </edge>
    <edge id=":10_1" function="internal">
        <lane id=":10_1_0" index="0" disallow="pedestrian tram rail_urban rail rail_electric rail_fast ship" speed="5.63" length="10.62" width="4.00" shape="278.38,402.62 278.18,401.28 279.53,401.02 282.43,401.87 286.89,403.80"/>
    </edge>
    <edge id=":10_9" function="internal">
        <lane id=":10_9_0" index="0" disallow="pedestrian tram rail_urban rail rail_electric rail_fast ship" speed="17.66" length="20.76" width="4.00" shape="271.33,390.31 271.14,388.36 272.37,379.54 275.65,370.20"/>
    </edge>
    <edge id=":10_2" function="internal">
        <lane id=":10_2_0" index="0" disallow="pedestrian tram rail_urban rail rail_electric rail_fast ship" speed="5.68" length="9.03" width="4.00" shape="269.05,369.15 271.07,371.55 272.84,372.52 274.37,372.07 275.65,370.20"/>
    </edge>
    <edge id=":10_3" function="internal">
        <lane id=":10_3_0" index="0" disallow="pedestrian tram rail_urban rail rail_electric rail_fast ship" speed="22.22" length="35.89" width="4.00" shape="269.05,369.15 274.12,377.09 278.12,383.03 283.33,387.99 292.04,392.96"/>
        <lane id=":10_3_1" index="1" disallow="pedestrian tram rail_urban rail rail_electric rail_fast ship" speed="22.22" length="35.89" width="4.00" shape="265.75,371.42 270.94,379.50 275.27,385.80 280.98,391.20 290.32,396.58"/>
        <lane id=":10_3_2" index="2" disallow="pedestrian tram rail_urban rail rail_electric rail_fast ship" speed="22.22" length="35.89" width="4.00" shape="262.46,373.69 267.76,381.92 272.41,388.58 278.62,394.42 288.61,400.19"/>
    </edge>
    <edge id=":10_6" function="internal">
        <lane id=":10_6_0" index="0" disallow="pedestrian tram rail_urban rail rail_electric rail_fast ship" speed="13.89" length="27.68" width="4.00" shape="266.06,396.16 267.94,390.75 270.68,383.11 273.51,375.51 275.65,370.20"/>
    </edge>
    <edge id=":10_7" function="internal">
        <lane id=":10_7_0" index="0" disallow="pedestrian tram rail_urban rail rail_electric rail_fast ship" speed="10.50" length="27.29" width="4.00" shape="266.06,396.16 269.26,392.05 274.62,391.21 281.77,392.95 290.32,396.58"/>
        <lane id=":10_7_1" index="1" disallow="pedestrian tram rail_urban rail rail_electric rail_fast ship" speed="9.98" length="24.47" width="4.00" shape="266.06,396.16 268.64,394.00 273.62,394.33 280.46,396.59 288.61,400.19"/>
    </edge>
    <edge id=":11_0" function="internal">
        <lane id=":11_0_0" index="0" disallow="pedestrian tram rail_urban rail rail_electric rail_fast ship" speed="18.05" length="0.24" width="4.00" shape="323.17,438.59 323.24,438.83"/>
    </edge>
    <edge id=":12_0" function="internal">
        <lane id=":12_0_0" index="0" disallow="pedestrian tram rail_urban rail rail_electric rail_fast ship" speed="13.89" length="7.08" width="4.00" shape="334.76,390.65 333.99,392.55 333.05,393.69 332.13,394.83 331.40,396.74"/>
        <lane id=":12_0_1" index="1" disallow="pedestrian tram rail_urban rail rail_electric rail_fast ship" speed="13.89" length="7.08" width="4.00" shape="330.88,389.69 330.10,391.62 329.16,392.78 328.23,393.94 327.50,395.88"/>
    </edge>
    <edge id=":12_2" function="internal">
        <lane id=":12_2_0" index="0" disallow="pedestrian tram rail_urban rail rail_electric rail_fast ship" speed="8.04" length="5.70" width="4.00" shape="326.99,388.73 326.54,389.95 325.79,391.06 324.76,392.08 323.44,393.00"/>
    </edge>
    <edge id=":13_0" function="internal">
        <lane id=":13_0_0" index="0" disallow="pedestrian tram rail_urban rail rail_electric rail_fast ship" speed="22.22" length="6.82" width="4.00" shape="273.08,411.24 271.42,410.29 270.30,409.58 269.14,408.97 267.35,408.33"/>
        <lane id=":13_0_1" index="1" disallow="pedestrian tram rail_urban rail rail_electric rail_fast ship" speed="22.22" length="6.82" width="4.00" shape="274.96,407.71 273.10,406.65 271.85,405.88 270.55,405.22 268.55,404.51"/>
    </edge>
    <edge id=":13_2" function="internal">
        <lane id=":13_2_0" index="0" disallow="pedestrian tram rail_urban rail rail_electric rail_fast ship" speed="6.10" length="1.98" width="4.00" shape="276.84,404.18 274.91,404.63"/>
        <lane id=":13_2_1" index="1" disallow="pedestrian tram rail_urban rail rail_electric rail_fast ship" speed="6.34" length="2.16" width="4.00" shape="278.72,400.65 278.47,402.80"/>
    </edge>
    <edge id=":14_0" function="internal">
        <lane id=":14_0_0" index="0" disallow="pedestrian tram rail_urban rail rail_electric rail_fast ship" speed="13.89" length="9.86" width="4.00" shape="275.73,370.02 276.57,367.06 276.68,364.73 277.13,362.60 278.93,360.24"/>
        <lane id=":14_0_1" index="1" disallow="pedestrian tram rail_urban rail rail_electric rail_fast ship" speed="13.89" length="9.86" width="4.00" shape="275.73,370.02 276.97,367.64 278.14,366.20 279.59,364.96 281.65,363.17"/>
    </edge>
    <edge id=":15_0" function="internal">
        <lane id=":15_0_0" index="0" disallow="pedestrian tram rail_urban rail rail_electric rail_fast ship" speed="4.84" length="1.94" width="4.00" shape="268.36,404.45 267.78,404.34 267.32,404.32 266.96,404.18 266.67,403.76"/>
    </edge>
    <edge id=":16_0" function="internal">
        <lane id=":16_0_0" index="0" disallow="pedestrian tram rail_urban rail rail_electric rail_fast ship" speed="13.89" length="8.00" width="4.00" shape="229.13,539.55 224.22,545.88"/>
    </edge>
    <edge id=":17_0" function="internal">
        <lane id=":17_0_0" index="0" disallow="pedestrian tram rail_urban rail rail_electric rail_fast ship" speed="22.22" length="10.94" width="4.00" shape="266.59,403.58 262.15,393.58"/>
    </edge>
    <edge id=":17_1" function="internal">
        <lane id=":17_1_0" index="0" disallow="pedestrian tram rail_urban rail rail_electric rail_fast ship" speed="9.70" length="1.27" width="4.00" shape="266.59,403.58 266.10,402.41"/>
    </edge>
    <edge id=":17_4" function="internal">
        <lane id=":17_4_0" index="0" disallow="pedestrian tram rail_urban rail rail_electric rail_fast ship" speed="9.70" length="6.27" width="4.00" shape="266.10,402.41 265.73,401.53 265.32,400.01 265.41,398.47 266.00,396.35"/>
    </edge>
    <edge id=":17_2" function="internal">
        <lane id=":17_2_0" index="0" disallow="pedestrian tram rail_urban rail rail_electric rail_fast ship" speed="12.37" length="12.92" width="4.00" shape="262.75,406.13 263.61,402.81 263.81,399.78 263.33,396.79 262.15,393.58"/>
    </edge>
    <edge id=":17_3" function="internal">
        <lane id=":17_3_0" index="0" disallow="pedestrian tram rail_urban rail rail_electric rail_fast ship" speed="13.89" length="10.30" width="4.00" shape="262.75,406.13 266.00,396.35"/>
    </edge>
    <edge id=":18_0" function="internal">
        <lane id=":18_0_0" index="0" disallow="pedestrian tram rail_urban rail rail_electric rail_fast ship" speed="13.89" length="8.21" width="4.00" shape="345.58,336.28 345.24,338.60 345.50,340.25 345.80,341.90 345.58,344.25"/>
        <lane id=":18_0_1" index="1" disallow="pedestrian tram rail_urban rail rail_electric rail_fast ship" speed="13.89" length="8.21" width="4.00" shape="341.73,335.18 341.38,337.55 341.63,339.24 341.92,340.94 341.68,343.34"/>
        <lane id=":18_0_2" index="2" disallow="pedestrian tram rail_urban rail rail_electric rail_fast ship" speed="13.89" length="8.21" width="4.00" shape="341.73,335.18 340.77,337.43 339.68,338.79 338.64,340.17 337.79,342.44"/>
    </edge>
    <edge id=":19_0" function="internal">
        <lane id=":19_0_0" index="0" disallow="pedestrian tram rail_urban rail rail_electric rail_fast ship" speed="13.89" length="8.47" width="4.00" shape="389.95,547.59 388.07,545.91 386.15,545.49 384.20,545.08 382.24,543.47"/>
        <lane id=":19_0_1" index="1" disallow="pedestrian tram rail_urban rail rail_electric rail_fast ship" speed="13.89" length="8.47" width="4.00" shape="389.95,547.59 385.45,541.08"/>
    </edge>
    <edge id=":2_0" function="internal">
        <lane id=":2_0_0" index="0" disallow="pedestrian tram rail_urban rail rail_electric rail_fast ship" speed="22.22" length="21.64" width="4.00" shape="251.42,366.52 249.85,361.97 247.75,356.27 245.35,350.74 242.87,346.72"/>
    </edge>
    <edge id=":2_1" function="internal">
        <lane id=":2_1_0" index="0" disallow="pedestrian tram rail_urban rail rail_electric rail_fast ship" speed="8.58" length="15.33" width="4.00" shape="251.42,366.52 249.76,359.26 250.21,353.10 251.27,351.77"/>
    </edge>
    <edge id=":2_2" function="internal">
        <lane id=":2_2_0" index="0" disallow="pedestrian tram rail_urban rail rail_electric rail_fast ship" speed="5.57" length="11.66" width="4.00" shape="251.42,366.52 251.42,363.39 253.15,361.09 255.74,360.28 258.33,361.65"/>
        <lane id=":2_2_1" index="1" disallow="pedestrian tram rail_urban rail rail_electric rail_fast ship" speed="5.82" length="12.95" width="4.00" shape="251.42,366.52 250.16,362.08 250.38,360.23 252.10,360.95 255.30,364.26"/>
    </edge>
    <edge id=":2_6" function="internal">
        <lane id=":2_6_0" index="0" disallow="pedestrian tram rail_urban rail rail_electric rail_fast ship" speed="8.58" length="8.90" width="4.00" shape="251.27,351.77 253.16,349.37 259.01,349.41"/>
    </edge>
    <edge id=":2_4" function="internal">
        <lane id=":2_4_0" index="0" disallow="pedestrian tram rail_urban rail rail_electric rail_fast ship" speed="16.77" length="14.37" width="4.00" shape="245.90,344.10 248.66,346.31 251.90,347.61 255.41,348.47 259.01,349.41"/>
    </edge>
    <edge id=":2_5" function="internal">
        <lane id=":2_5_0" index="0" disallow="pedestrian tram rail_urban rail rail_electric rail_fast ship" speed="22.22" length="21.53" width="4.00" shape="245.90,344.10 248.71,346.88 252.23,349.93 256.45,353.80 261.37,359.04"/>
    </edge>
    <edge id=":3_0" function="internal">
        <lane id=":3_0_0" index="0" disallow="pedestrian tram rail_urban rail rail_electric rail_fast ship" speed="4.08" length="5.84" width="4.00" shape="-1.90,0.62 -1.41,-1.12 -0.62,-1.90 0.49,-1.74 1.90,-0.62"/>
    </edge>
    <edge id=":4_0" function="internal">
        <lane id=":4_0_0" index="0" disallow="pedestrian tram rail_urban rail rail_electric rail_fast ship" speed="4.08" length="5.84" width="4.00" shape="397.57,264.41 399.28,263.85 400.37,264.07 400.85,265.08 400.72,266.88"/>
    </edge>
    <edge id=":5_0" function="internal">
        <lane id=":5_0_0" index="0" disallow="pedestrian tram rail_urban rail rail_electric rail_fast ship" speed="6.58" length="9.31" width="4.00" shape="375.83,304.57 373.26,302.45 371.75,300.51 371.31,298.75 371.94,297.17"/>
    </edge>
    <edge id=":5_1" function="internal">
        <lane id=":5_1_0" index="0" disallow="pedestrian tram rail_urban rail rail_electric rail_fast ship" speed="4.08" length="2.49" width="4.00" shape="375.09,299.64 373.38,300.20 372.71,300.07"/>
    </edge>
    <edge id=":5_3" function="internal">
        <lane id=":5_3_0" index="0" disallow="pedestrian tram rail_urban rail rail_electric rail_fast ship" speed="4.08" length="3.35" width="4.00" shape="372.71,300.07 372.28,299.98 371.80,298.97 371.94,297.17"/>
    </edge>
    <edge id=":5_2" function="internal">
        <lane id=":5_2_0" index="0" disallow="pedestrian tram rail_urban rail rail_electric rail_fast ship" speed="8.33" length="7.73" width="4.00" shape="369.38,304.37 370.33,302.32 370.56,300.70 370.84,299.12 371.94,297.17"/>
    </edge>
    <edge id=":6_0" function="internal">
        <lane id=":6_0_0" index="0" disallow="pedestrian tram rail_urban rail rail_electric rail_fast ship" speed="7.08" length="14.82" width="4.00" shape="317.08,440.69 313.81,436.09 310.94,433.75 308.47,433.69 306.41,435.88"/>
    </edge>
    <edge id=":6_1" function="internal">
        <lane id=":6_1_0" index="0" disallow="pedestrian tram rail_urban rail rail_electric rail_fast ship" speed="19.57" length="18.64" width="4.00" shape="317.08,440.69 315.08,437.48 312.62,434.25 309.13,431.01 304.04,427.76"/>
        <lane id=":6_1_1" index="1" disallow="pedestrian tram rail_urban rail rail_electric rail_fast ship" speed="20.45" length="20.38" width="4.00" shape="317.08,440.69 315.47,436.98 313.82,432.62 311.01,428.19 305.94,424.24"/>
    </edge>
    <edge id=":6_3" function="internal">
        <lane id=":6_3_0" index="0" disallow="pedestrian tram rail_urban rail rail_electric rail_fast ship" speed="18.05" length="31.28" width="4.00" shape="330.02,402.97 327.72,411.11 324.85,419.87 322.56,427.71 322.04,433.12"/>
    </edge>
    <edge id=":6_4" function="internal">
        <lane id=":6_4_0" index="0" disallow="pedestrian tram rail_urban rail rail_electric rail_fast ship" speed="13.89" length="40.69" width="4.00" shape="330.02,402.97 325.76,411.62 318.32,421.45 310.83,430.27 306.41,435.88"/>
    </edge>
    <edge id=":6_5" function="internal">
        <lane id=":6_5_0" index="0" disallow="pedestrian tram rail_urban rail rail_electric rail_fast ship" speed="10.65" length="31.09" width="4.00" shape="326.12,402.10 323.42,411.78 319.75,418.84 314.70,422.19 307.83,420.72"/>
        <lane id=":6_5_1" index="1" disallow="pedestrian tram rail_urban rail rail_electric rail_fast ship" speed="9.95" length="26.90" width="4.00" shape="326.12,402.10 323.79,410.29 320.56,416.14 316.01,418.74 309.73,417.19"/>
    </edge>
    <edge id=":6_7" function="internal">
        <lane id=":6_7_0" index="0" disallow="pedestrian tram rail_urban rail rail_electric rail_fast ship" speed="15.68" length="29.03" width="4.00" shape="316.61,404.62 317.81,409.11 319.59,418.66 321.24,428.31 322.04,433.12"/>
    </edge>
    <edge id=":6_8" function="internal">
        <lane id=":6_8_0" index="0" disallow="pedestrian tram rail_urban rail rail_electric rail_fast ship" speed="11.23" length="30.19" width="4.00" shape="314.90,408.23 316.43,410.94 315.53,416.45 312.19,424.77 306.41,435.88"/>
    </edge>
    <edge id=":6_9" function="internal">
        <lane id=":6_9_0" index="0" disallow="pedestrian tram rail_urban rail rail_electric rail_fast ship" speed="3.53" length="3.59" width="4.00" shape="311.47,415.46 311.68,416.55 311.47,417.20 310.81,417.41 309.73,417.19"/>
    </edge>
    <edge id=":7_0" function="internal">
        <lane id=":7_0_0" index="0" disallow="pedestrian tram rail_urban rail rail_electric rail_fast ship" speed="18.05" length="3.03" width="4.00" shape="292.10,464.83 290.28,467.26"/>
    </edge>
    <edge id=":7_1" function="internal">
        <lane id=":7_1_0" index="0" disallow="pedestrian tram rail_urban rail rail_electric rail_fast ship" speed="13.89" length="2.76" width="4.00" shape="288.75,462.58 287.12,464.81"/>
    </edge>
    <edge id=":8_0" function="internal">
        <lane id=":8_0_0" index="0" disallow="pedestrian tram rail_urban rail rail_electric rail_fast ship" speed="18.05" length="3.28" width="4.00" shape="327.82,466.80 327.20,466.06 326.76,465.55 326.30,465.07 325.62,464.39"/>
    </edge>
    <edge id=":8_1" function="internal">
        <lane id=":8_1_0" index="0" disallow="pedestrian tram rail_urban rail rail_electric rail_fast ship" speed="18.05" length="3.36" width="4.00" shape="330.90,464.25 330.27,463.48 329.86,462.93 329.50,462.35 329.00,461.49"/>
    </edge>
    <edge id=":9_0" function="internal">
        <lane id=":9_0_0" index="0" disallow="pedestrian tram rail_urban rail rail_electric rail_fast ship" speed="11.08" length="11.12" width="4.00" shape="282.63,350.54 285.85,350.33 288.34,350.26 290.50,349.52 292.73,347.34"/>
    </edge>
    <edge id=":9_1" function="internal">
        <lane id=":9_1_0" index="0" disallow="pedestrian tram rail_urban rail rail_electric rail_fast ship" speed="13.89" length="19.11" width="4.00" shape="279.07,360.11 283.30,356.47 286.36,354.13 289.18,351.59 292.73,347.34"/>
        <lane id=":9_1_1" index="1" disallow="pedestrian tram rail_urban rail rail_electric rail_fast ship" speed="13.89" length="19.11" width="4.00" shape="281.80,363.04 286.18,359.26 289.33,356.82 292.25,354.16 295.92,349.75"/>
    </edge>
    <edge id=":9_3" function="internal">
        <lane id=":9_3_0" index="0" disallow="pedestrian tram rail_urban rail rail_electric rail_fast ship" speed="13.89" length="25.91" width="4.00" shape="282.50,371.70 283.92,367.29 287.11,361.85 291.34,355.84 295.92,349.75"/>
    </edge>

    <edge id="-310.0.00" from="1" to="2" priority="1" type="driving" shape="3.31,10.21 11.34,35.00 11.80,36.43 12.31,38.04 12.87,39.80 13.46,41.66 14.08,43.61 14.70,45.59 15.32,47.57 15.93,49.52 16.51,51.39 17.06,53.15 17.55,54.77 17.99,56.20 36.05,115.60 36.50,117.10 37.02,118.82 37.59,120.71 38.18,122.71 38.80,124.77 39.42,126.82 40.03,128.82 40.60,130.71 41.14,132.42 41.62,133.92 42.09,135.33 42.66,137.00 43.29,138.82 43.96,140.68 44.62,142.48 45.23,144.13 45.78,145.52 46.33,146.82 47.04,148.38 47.81,150.01 48.58,151.54 49.26,152.78 50.10,154.16 51.14,155.79 52.29,157.53 53.47,159.25 54.59,160.83 55.57,162.12 56.64,163.42 57.97,164.95 59.44,166.57 60.93,168.17 62.33,169.63 63.52,170.84 64.65,171.93 65.96,173.16 67.39,174.50 68.92,175.91 70.51,177.36 72.12,178.83 73.71,180.28 75.24,181.68 76.69,183.01 78.01,184.22 79.16,185.30 201.28,300.84 202.42,301.93 203.71,303.18 205.11,304.56 206.60,306.02 208.12,307.53 209.64,309.04 211.12,310.51 212.52,311.89 213.79,313.16 214.91,314.26 215.96,315.29 217.23,316.54 218.57,317.85 219.83,319.10 220.87,320.14 222.01,321.28 223.33,322.58 224.77,324.00 226.30,325.51 227.86,327.07 229.41,328.63 230.92,330.16 232.32,331.62 233.58,332.97 234.66,334.17 244.38,345.41">
        <lane id="-310.0.00_0" index="0" disallow="pedestrian tram rail_urban rail rail_electric rail_fast ship" speed="22.22" length="423.62" width="4.00" shape="5.22,9.60 13.24,34.38 13.70,35.82 14.22,37.43 14.78,39.19 15.37,41.06 15.98,43.01 16.61,44.99 17.23,46.97 17.84,48.92 18.42,50.80 18.97,52.56 19.47,54.18 19.90,55.62 37.96,115.01 38.42,116.52 38.94,118.25 39.50,120.14 40.10,122.14 40.72,124.19 41.33,126.24 41.94,128.24 42.52,130.11 43.05,131.82 43.52,133.30 43.98,134.70 44.55,136.35 45.18,138.15 45.84,140.00 46.49,141.79 47.10,143.41 47.63,144.76 48.16,146.02 48.85,147.54 49.61,149.14 50.35,150.61 50.99,151.78 51.79,153.10 52.82,154.70 53.95,156.41 55.11,158.11 56.21,159.64 57.14,160.88 58.17,162.13 59.47,163.62 60.91,165.22 62.38,166.80 63.76,168.24 64.93,169.41 66.03,170.49 67.32,171.70 68.75,173.03 70.27,174.44 71.86,175.89 73.46,177.35 75.05,178.80 76.59,180.21 78.04,181.54 79.37,182.76 80.53,183.85 202.66,299.39 203.80,300.49 205.10,301.75 206.52,303.13 208.00,304.60 209.53,306.11 211.05,307.62 212.53,309.09 213.93,310.48 215.20,311.74 216.31,312.84 217.36,313.87 218.63,315.11 219.97,316.42 221.24,317.67 222.29,318.72 223.43,319.86 224.74,321.16 226.18,322.58 227.70,324.09 229.27,325.65 230.83,327.22 232.35,328.76 233.77,330.24 235.06,331.62 236.16,332.85 245.90,344.10" type="driving"/>
    </edge>
    <edge id="-311.0.00" from="3" to="1" priority="1" type="driving" shape="0.00,0.00 3.22,9.93">
        <lane id="-311.0.00_0" index="0" disallow="pedestrian tram rail_urban rail rail_electric rail_fast ship" speed="22.22" length="10.44" width="4.00" shape="1.90,-0.62 5.12,9.31" type="driving"/>
    </edge>
    <edge id="-312.0.00" from="4" to="5" priority="1" type="driving" shape="399.14,265.64 373.51,298.41">
        <lane id="-312.0.00_0" index="0" disallow="pedestrian tram rail_urban rail rail_electric rail_fast ship" speed="8.33" length="41.59" width="4.00" shape="400.72,266.88 375.09,299.64" type="driving"/>
    </edge>
    <edge id="-313.0.00" from="6" to="7" priority="1" type="driving" shape="304.67,434.91 301.55,440.48 300.76,441.80 299.76,443.32 298.63,444.95 297.44,446.61 296.28,448.23 295.22,449.71 294.33,450.97 287.11,461.44">
        <lane id="-313.0.00_0" index="0" disallow="pedestrian tram rail_urban rail rail_electric rail_fast ship" speed="13.89" length="32.03" width="4.00" shape="306.41,435.88 303.29,441.47 302.45,442.87 301.41,444.44 300.26,446.10 299.07,447.78 297.91,449.39 296.85,450.87 295.97,452.11 288.75,462.58" type="driving"/>
    </edge>
    <edge id="-314.0.00" from="8" to="7" priority="1" type="driving" shape="327.02,462.96 322.18,458.16 320.86,457.46 319.02,457.07 317.10,456.83 315.53,456.59 313.83,456.17 312.12,455.83 310.79,455.79 309.23,455.83 307.90,455.89 306.11,456.00 303.99,456.18 302.22,456.45 300.62,456.75 298.66,457.11 296.65,457.58 294.89,458.25 293.72,459.18 290.48,463.66">
        <lane id="-314.0.00_0" index="0" disallow="pedestrian tram rail_urban rail rail_electric rail_fast ship" speed="22.22" length="38.27" width="4.00" shape="325.62,464.39 320.98,459.79 320.17,459.36 318.69,459.04 316.83,458.81 315.14,458.55 313.40,458.12 311.89,457.83 310.79,457.79 309.30,457.83 308.02,457.89 306.25,458.00 304.23,458.17 302.55,458.42 300.99,458.72 299.07,459.07 297.23,459.50 295.89,460.01 295.17,460.58 292.10,464.83" type="driving"/>
    </edge>
    <edge id="-315.0.00" from="2" to="9" priority="1" type="driving" shape="258.41,351.32 258.85,351.46 260.23,351.88 261.92,352.35 263.60,352.79 265.01,353.14 266.87,353.52 268.76,353.75 270.41,353.73 272.40,353.65 274.51,353.54 276.49,353.38 278.14,353.19 282.91,352.52">
        <lane id="-315.0.00_0" index="0" disallow="pedestrian tram rail_urban rail rail_electric rail_fast ship" speed="22.22" length="23.98" width="4.00" shape="259.01,349.41 259.43,349.55 260.79,349.96 262.44,350.42 264.10,350.86 265.44,351.19 267.20,351.55 268.86,351.75 270.36,351.73 272.31,351.66 274.37,351.54 276.31,351.39 277.88,351.21 282.63,350.54" type="driving"/>
    </edge>
    <edge id="-316.0.00" from="2" to="10" priority="1" type="driving" shape="253.78,365.56 256.93,369.22 257.70,370.28 258.42,371.36 259.17,372.45 259.92,373.54 260.81,374.82">
        <lane id="-316.0.00_0" index="0" disallow="pedestrian tram rail_urban rail rail_electric rail_fast ship" speed="22.22" length="12.28" width="4.00" shape="261.37,359.04 264.78,363.01 265.90,364.56 266.69,365.74 267.41,366.77 268.16,367.87 269.05,369.15" type="driving"/>
        <lane id="-316.0.00_1" index="1" disallow="pedestrian tram rail_urban rail rail_electric rail_fast ship" speed="22.22" length="12.28" width="4.00" shape="258.33,361.65 261.64,365.50 262.62,366.84 263.38,367.99 264.11,369.04 264.87,370.13 265.75,371.42" type="driving"/>
        <lane id="-316.0.00_2" index="2" disallow="pedestrian tram rail_urban rail rail_electric rail_fast ship" speed="22.22" length="12.28" width="4.00" shape="255.30,364.26 258.50,367.98 259.34,369.13 260.08,370.23 260.82,371.31 261.57,372.40 262.46,373.69" type="driving"/>
    </edge>
    <edge id="-317.0.00" from="8" to="6" priority="1" type="driving" shape="330.75,460.51 320.16,441.67 319.24,440.41 318.45,439.09 316.69,433.19">
        <lane id="-317.0.00_0" index="0" disallow="pedestrian tram rail_urban rail rail_electric rail_fast ship" speed="22.22" length="23.99" width="4.00" shape="329.00,461.49 318.47,442.75 317.57,441.51 317.08,440.69" type="driving"/>
    </edge>
    <edge id="-318.0.00" from="6" to="11" priority="1" type="driving" shape="320.08,433.52 321.21,439.02 321.24,439.12">
        <lane id="-318.0.00_0" index="0" disallow="pedestrian tram rail_urban rail rail_electric rail_fast ship" speed="22.22" length="5.64" width="4.00" shape="322.04,433.12 323.17,438.62 323.17,438.59" type="driving"/>
    </edge>
    <edge id="-319.0.00" from="12" to="9" priority="1" type="driving" shape="322.42,391.28 319.46,393.04 317.69,393.86 316.05,394.05 314.46,393.86 287.19,380.24 286.34,379.32 285.67,378.21 285.06,377.09 284.57,375.93 284.39,374.71 284.37,373.47 284.50,371.86">
        <lane id="-319.0.00_0" index="0" disallow="pedestrian tram rail_urban rail rail_electric rail_fast ship" speed="13.89" length="52.70" width="4.00" shape="323.44,393.00 320.39,394.81 318.23,395.82 316.04,396.06 313.88,395.80 285.96,381.86 284.73,380.52 283.94,379.20 283.26,377.97 282.63,376.48 282.39,374.87 282.37,373.41 282.50,371.70" type="driving"/>
    </edge>
    <edge id="-320.0.00" from="2" to="1" priority="1" type="driving" shape="244.38,345.41 234.66,334.17 233.58,332.97 232.32,331.62 230.92,330.16 229.41,328.63 227.86,327.07 226.30,325.51 224.77,324.00 223.33,322.58 222.01,321.28 220.87,320.14 219.83,319.10 218.57,317.85 217.23,316.54 215.96,315.29 214.91,314.26 213.79,313.16 212.52,311.89 211.12,310.51 209.64,309.04 208.12,307.53 206.60,306.02 205.11,304.56 203.71,303.18 202.42,301.93 201.28,300.84 79.16,185.30 78.01,184.22 76.69,183.01 75.24,181.68 73.71,180.28 72.12,178.83 70.51,177.36 68.92,175.91 67.39,174.50 65.96,173.16 64.65,171.93 63.52,170.84 62.33,169.63 60.93,168.17 59.44,166.57 57.97,164.95 56.64,163.42 55.57,162.12 54.59,160.83 53.47,159.25 52.29,157.53 51.14,155.79 50.10,154.16 49.26,152.78 48.58,151.54 47.81,150.01 47.04,148.38 46.33,146.82 45.78,145.52 45.23,144.13 44.62,142.48 43.96,140.68 43.29,138.82 42.66,137.00 42.09,135.33 41.62,133.92 41.14,132.42 40.60,130.71 40.03,128.82 39.42,126.82 38.80,124.77 38.18,122.71 37.59,120.71 37.02,118.82 36.50,117.10 36.05,115.60 17.99,56.20 17.55,54.77 17.06,53.15 16.51,51.39 15.93,49.52 15.32,47.57 14.70,45.59 14.08,43.61 13.46,41.66 12.87,39.80 12.31,38.04 11.80,36.43 11.34,35.00 3.31,10.21">