<?xml version="1.0" encoding="UTF-8"?>

<!-- generated on 2022-01-24 15:09:45 by Eclipse SUMO netconvert Version 1.11.0
<configuration xmlns:xsi="http://www.w3.org/2001/XMLSchema-instance" xsi:noNamespaceSchemaLocation="http://sumo.dlr.de/xsd/netconvertConfiguration.xsd">

    <input>
        <opendrive-files value=".\script_carla\map_xodr\rond_point_toulouse.xodr"/>
    </input>

    <output>
        <output-file value=".\script_carla\map_net_xml\rond_point_toulouse.net.xml"/>
    </output>

    <processing>
        <geometry.max-grade.fix value="false"/>
    </processing>

    <tls_building>
        <tls.left-green.time value="0"/>
    </tls_building>

    <junctions>
        <rectangular-lane-cut value="true"/>
    </junctions>

    <report>
        <aggregate-warnings value="5"/>
    </report>

</configuration>
-->

<net version="1.9" junctionCornerDetail="5" rectangularLaneCut="true" limitTurnSpeed="5.50" xmlns:xsi="http://www.w3.org/2001/XMLSchema-instance" xsi:noNamespaceSchemaLocation="http://sumo.dlr.de/xsd/net_file.xsd">

    <location netOffset="2.75,-2.91" convBoundary="0.00,0.00,494.29,401.71" origBoundary="-2.75,2.91,491.55,404.61" projParameter="!"/>

    <type id="bidirectional" priority="1" speed="1.39" disallow="pedestrian tram rail_urban rail rail_electric rail_fast ship" width="3.65"/>
    <type id="border" priority="0" speed="1.39" disallow="all" discard="1" width="0.10"/>
    <type id="driving" priority="1" speed="13.89" disallow="pedestrian tram rail_urban rail rail_electric rail_fast ship" width="3.65"/>
    <type id="entry" priority="1" speed="22.22" disallow="pedestrian tram rail_urban rail rail_electric rail_fast ship" width="3.65"/>
    <type id="exit" priority="1" speed="22.22" disallow="pedestrian tram rail_urban rail rail_electric rail_fast ship" width="3.65"/>
    <type id="median" priority="0" speed="1.39" disallow="all" discard="1" width="0.10"/>
    <type id="mwyEntry" priority="1" speed="22.22" allow="private emergency authority army vip passenger hov taxi bus coach delivery truck trailer motorcycle evehicle custom1 custom2" width="3.65"/>
    <type id="mwyExit" priority="1" speed="22.22" allow="private emergency authority army vip passenger hov taxi bus coach delivery truck trailer motorcycle evehicle custom1 custom2" width="3.65"/>
    <type id="none" priority="0" speed="1.39" disallow="all" discard="1" width="1.00"/>
    <type id="offRamp" priority="1" speed="22.22" allow="private emergency authority army vip passenger hov taxi bus coach delivery truck trailer motorcycle evehicle custom1 custom2" width="3.65"/>
    <type id="onRamp" priority="1" speed="22.22" allow="private emergency authority army vip passenger hov taxi bus coach delivery truck trailer motorcycle evehicle custom1 custom2" width="3.65"/>
    <type id="parking" priority="1" speed="1.39" disallow="pedestrian tram rail_urban rail rail_electric rail_fast ship" width="2.50"/>
    <type id="rail" priority="3" speed="33.33" allow="rail_urban rail rail_electric rail_fast" width="3.65"/>
    <type id="restricted" priority="0" speed="13.89" disallow="all" width="3.65"/>
    <type id="roadWorks" priority="0" speed="1.39" allow="authority" width="3.65"/>
    <type id="shoulder" priority="0" speed="1.39" disallow="all" discard="1" width="1.00"/>
    <type id="special1" priority="1" speed="22.22" allow="custom1" discard="1" width="3.65"/>
    <type id="special2" priority="1" speed="22.22" allow="custom2" discard="1" width="3.65"/>
    <type id="special3" priority="1" speed="22.22" allow="custom1 custom2" discard="1" width="3.65"/>
    <type id="stop" priority="1" speed="13.89" disallow="pedestrian tram rail_urban rail rail_electric rail_fast ship" width="3.65"/>
    <type id="tram" priority="2" speed="13.89" allow="tram" width="3.65"/>

    <edge id=":1_0" function="internal">
        <lane id=":1_0_0" index="0" disallow="pedestrian tram rail_urban rail rail_electric rail_fast ship" speed="6.98" length="10.76" width="4.00" shape="382.56,214.13 383.88,216.45 385.80,217.69 388.33,217.85 391.46,216.93"/>
    </edge>
    <edge id=":1_1" function="internal">
        <lane id=":1_1_0" index="0" disallow="pedestrian tram rail_urban rail rail_electric rail_fast ship" speed="13.22" length="12.93" width="4.00" shape="382.56,214.13 384.00,218.15 384.70,221.10 384.48,224.03 383.13,227.98"/>
        <lane id=":1_1_1" index="1" disallow="pedestrian tram rail_urban rail rail_electric rail_fast ship" speed="11.83" length="12.93" width="4.00" shape="378.79,215.47 379.96,218.66 380.58,221.00 380.47,223.33 379.43,226.46"/>
    </edge>
    <edge id=":2_0" function="internal">
        <lane id=":2_0_0" index="0" disallow="pedestrian tram rail_urban rail rail_electric rail_fast ship" speed="8.15" length="8.20" width="4.00" shape="369.11,204.79 371.05,204.83 372.90,204.33 374.67,203.30 376.35,201.72"/>
    </edge>
    <edge id=":2_1" function="internal">
        <lane id=":2_1_0" index="0" disallow="pedestrian tram rail_urban rail rail_electric rail_fast ship" speed="13.89" length="9.43" width="4.00" shape="369.11,204.79 372.18,205.33 374.24,206.00 376.08,207.17 378.45,209.18"/>
        <lane id=":2_1_1" index="1" disallow="pedestrian tram rail_urban rail rail_electric rail_fast ship" speed="12.40" length="9.43" width="4.00" shape="368.49,208.74 370.89,209.16 372.51,209.69 373.94,210.60 375.80,212.18"/>
    </edge>
    <edge id=":3_0" function="internal">
        <lane id=":3_0_0" index="0" disallow="pedestrian tram rail_urban rail rail_electric rail_fast ship" speed="9.64" length="10.21" width="4.00" shape="364.71,244.99 363.97,242.67 362.69,240.62 360.86,238.84 358.49,237.34"/>
        <lane id=":3_0_1" index="1" disallow="pedestrian tram rail_urban rail rail_electric rail_fast ship" speed="11.14" length="13.83" width="4.00" shape="368.64,244.24 367.64,241.03 365.92,238.22 363.48,235.80 360.33,233.79"/>
    </edge>
    <edge id=":3_2" function="internal">
        <lane id=":3_2_0" index="0" disallow="pedestrian tram rail_urban rail rail_electric rail_fast ship" speed="13.89" length="11.61" width="4.00" shape="370.72,239.29 366.97,239.48 364.35,239.47 361.85,238.88 358.49,237.34"/>
        <lane id=":3_2_1" index="1" disallow="pedestrian tram rail_urban rail rail_electric rail_fast ship" speed="13.89" length="11.61" width="4.00" shape="370.58,235.29 367.44,235.47 365.24,235.50 363.15,235.05 360.33,233.79"/>
    </edge>
    <edge id=":4_0" function="internal">
        <lane id=":4_0_0" index="0" disallow="pedestrian tram rail_urban rail rail_electric rail_fast ship" speed="11.07" length="11.14" width="4.00" shape="350.04,217.16 350.62,214.31 350.15,212.28 348.99,210.28 347.51,207.52"/>
        <lane id=":4_0_1" index="1" disallow="pedestrian tram rail_urban rail rail_electric rail_fast ship" speed="11.75" length="11.14" width="4.00" shape="350.04,217.16 351.32,213.87 352.16,211.46 352.22,209.08 351.16,205.89"/>
    </edge>
    <edge id=":4_2" function="internal">
        <lane id=":4_2_0" index="0" disallow="pedestrian tram rail_urban rail rail_electric rail_fast ship" speed="10.91" length="10.33" width="4.00" shape="350.04,217.16 351.50,213.50 353.09,210.65 354.78,208.64 356.58,207.45"/>
        <lane id=":4_2_1" index="1" disallow="pedestrian tram rail_urban rail rail_electric rail_fast ship" speed="9.35" length="10.33" width="4.00" shape="353.82,218.47 354.92,215.59 356.01,213.41 357.08,211.92 358.12,211.14"/>
    </edge>
    <edge id=":5_0" function="internal">
        <lane id=":5_0_0" index="0" disallow="pedestrian tram rail_urban rail rail_electric rail_fast ship" speed="10.66" length="10.23" width="4.00" shape="359.62,200.47 361.54,202.69 363.31,203.77 365.44,204.26 368.45,204.68"/>
        <lane id=":5_0_1" index="1" disallow="pedestrian tram rail_urban rail rail_electric rail_fast ship" speed="12.13" length="13.40" width="4.00" shape="356.40,202.84 358.89,205.79 361.16,207.30 363.90,208.04 367.83,208.63"/>
    </edge>
    <edge id=":5_2" function="internal">
        <lane id=":5_2_0" index="0" disallow="pedestrian tram rail_urban rail rail_electric rail_fast ship" speed="13.89" length="11.18" width="4.00" shape="356.77,207.37 360.10,205.85 362.46,204.81 364.90,204.39 368.45,204.68"/>
        <lane id=":5_2_1" index="1" disallow="pedestrian tram rail_urban rail rail_electric rail_fast ship" speed="13.89" length="11.18" width="4.00" shape="358.31,211.07 361.03,209.78 362.95,208.86 364.93,208.43 367.83,208.63"/>
    </edge>
    <edge id=":6_0" function="internal">
        <lane id=":6_0_0" index="0" disallow="pedestrian tram rail_urban rail rail_electric rail_fast ship" speed="13.89" length="12.09" width="4.00" shape="381.45,231.41 380.02,234.37 379.53,236.60 379.62,238.97 379.93,242.31"/>
        <lane id=":6_0_1" index="1" disallow="pedestrian tram rail_urban rail rail_electric rail_fast ship" speed="13.89" length="12.09" width="4.00" shape="381.45,231.41 379.24,234.58 377.39,236.72 376.18,239.00 375.95,242.60"/>
    </edge>
    <edge id=":6_2" function="internal">
        <lane id=":6_2_0" index="0" disallow="pedestrian tram rail_urban rail rail_electric rail_fast ship" speed="10.22" length="11.69" width="4.00" shape="381.45,231.41 379.19,234.77 376.68,237.20 373.93,238.70 370.92,239.28"/>
        <lane id=":6_2_1" index="1" disallow="pedestrian tram rail_urban rail rail_electric rail_fast ship" speed="8.66" length="11.69" width="4.00" shape="377.95,229.46 376.32,231.95 374.58,233.75 372.73,234.87 370.78,235.28"/>
    </edge>
    <edge id=":7_0" function="internal">
        <lane id=":7_0_0" index="0" disallow="pedestrian tram rail_urban rail rail_electric rail_fast ship" speed="9.17" length="6.17" width="4.00" shape="383.42,208.08 382.71,209.78 382.20,211.01 382.08,212.24 382.49,213.94"/>
    </edge>
    <edge id=":7_1" function="internal">
        <lane id=":7_1_0" index="0" disallow="pedestrian tram rail_urban rail rail_electric rail_fast ship" speed="12.07" length="5.19" width="4.00" shape="378.58,209.30 380.01,210.47 381.01,211.30 381.77,212.29 382.49,213.94"/>
        <lane id=":7_1_1" index="1" disallow="pedestrian tram rail_urban rail rail_electric rail_fast ship" speed="10.01" length="5.19" width="4.00" shape="375.93,212.29 376.92,213.06 377.64,213.57 378.21,214.19 378.72,215.28"/>
    </edge>

    <edge id="-140.0.00" from="1" to="140.end" priority="1" type="driving" shape="390.61,219.31 391.93,218.90 393.61,218.19 395.48,217.11 396.92,216.01 398.08,214.55 399.22,212.66 400.00,210.96 403.16,201.90 403.66,200.52 404.30,198.87 404.99,197.14 405.66,195.51 406.25,194.17 412.71,179.84 413.33,178.52 414.12,176.94 414.97,175.28 415.80,173.72 416.52,172.44 424.10,159.42 424.82,158.15 425.68,156.60 426.58,154.97 427.42,153.42 428.13,152.13 428.79,150.87 429.45,149.60 430.14,148.31 430.97,146.75 431.85,145.10 432.68,143.54 433.37,142.25 434.08,140.89 434.92,139.29 435.68,137.97 436.50,136.76 437.51,135.31 438.60,133.80 439.65,132.39 440.54,131.23 441.66,129.88 443.04,128.29 444.44,126.71 445.64,125.44 452.13,118.84 453.15,117.78 454.37,116.51 455.66,115.16 456.88,113.88 457.89,112.82 459.11,111.53 460.58,109.96 462.05,108.39 463.26,107.09 464.26,106.02 465.46,104.72 466.72,103.35 467.92,102.05 468.92,100.97 469.93,99.87 471.11,98.57 472.12,97.47 473.12,96.39 474.32,95.10 475.53,93.81 476.57,92.78 477.77,91.65 479.26,90.31 480.77,89.01 482.08,88.00 494.29,79.60">
        <lane id="-140.0.00_0" index="0" disallow="pedestrian tram rail_urban rail rail_electric rail_fast ship" speed="8.33" length="175.54" width="4.00" shape="391.46,216.93 392.72,216.39 394.37,215.44 395.51,214.57 396.43,213.41 397.45,211.72 398.14,210.21 401.27,201.24 401.79,199.82 402.43,198.15 403.13,196.39 403.82,194.73 404.42,193.36 410.89,179.02 411.53,177.64 412.33,176.03 413.20,174.35 414.04,172.76 414.78,171.45 422.37,158.42 423.08,157.17 423.93,155.64 424.82,154.01 425.67,152.46 426.36,151.18 427.02,149.94 427.68,148.67 428.37,147.37 429.20,145.81 430.08,144.16 430.91,142.60 431.60,141.32 432.31,139.96 433.16,138.33 433.99,136.91 434.85,135.62 435.88,134.15 436.99,132.62 438.05,131.18 438.98,129.98 440.13,128.59 441.54,126.96 442.97,125.36 444.20,124.06 450.70,117.44 451.71,116.39 452.93,115.13 454.22,113.78 455.43,112.50 456.44,111.45 457.66,110.16 459.12,108.59 460.58,107.03 461.79,105.73 462.79,104.66 463.99,103.36 465.26,101.99 466.45,100.70 467.44,99.62 468.45,98.52 469.63,97.22 470.65,96.11 471.65,95.04 472.86,93.73 474.10,92.42 475.18,91.34 476.42,90.17 477.94,88.80 479.51,87.46 480.91,86.38 493.16,77.95" type="driving"/>
    </edge>
    <edge id="-141.0.00" from="2" to="141.end" priority="1" type="driving" shape="377.63,203.29 378.40,202.43 379.27,201.17 380.06,199.55 380.79,197.68 381.45,195.72 382.05,193.78 382.58,192.00 383.06,190.51 402.06,136.12 402.61,134.53 403.22,132.65 403.89,130.58 404.56,128.46 405.20,126.39 405.79,124.50 406.28,122.89 406.74,121.33 407.27,119.48 407.84,117.46 408.42,115.39 408.99,113.37 409.53,111.53 410.01,109.97 410.47,108.49 411.03,106.71 411.65,104.80 412.30,102.90 412.96,101.17 413.60,99.76 421.91,83.39 422.72,81.93 423.74,80.25 424.92,78.44 426.18,76.62 427.45,74.89 428.67,73.34 429.75,72.07 429.92,71.88">
        <lane id="-141.0.00_0" index="0" disallow="pedestrian tram rail_urban rail rail_electric rail_fast ship" speed="13.89" length="141.92" width="4.00" shape="376.35,201.72 376.82,201.19 377.54,200.15 378.23,198.74 378.91,197.00 379.55,195.10 380.13,193.19 380.67,191.41 381.17,189.88 400.18,135.46 400.71,133.90 401.32,132.03 401.98,129.98 402.65,127.86 403.29,125.80 403.88,123.91 404.36,122.32 404.82,120.77 405.34,118.94 405.91,116.92 406.50,114.84 407.07,112.82 407.61,110.96 408.09,109.38 408.56,107.89 409.12,106.10 409.75,104.17 410.42,102.22 411.11,100.41 411.79,98.89 420.13,82.47 420.99,80.92 422.05,79.18 423.26,77.33 424.55,75.46 425.86,73.68 427.12,72.07 428.24,70.76 428.45,70.53" type="driving"/>
    </edge>
    <edge id="-142.0.00" from="3" to="4" priority="1" type="driving" shape="361.26,232.01 360.14,231.43 358.99,230.53 357.97,229.45 357.02,228.06 356.19,226.59 355.70,225.21 355.37,223.78 355.25,221.82 355.44,219.89 355.71,219.12">
        <lane id="-142.0.00_0" index="0" disallow="pedestrian tram rail_urban rail rail_electric rail_fast ship" speed="13.89" length="20.93" width="4.00" shape="358.49,237.34 356.88,236.50 354.93,234.97 353.29,233.23 351.92,231.24 350.71,229.08 349.93,226.89 349.42,224.64 349.23,221.71 349.54,218.59 350.04,217.16" type="driving"/>
        <lane id="-142.0.00_1" index="1" disallow="pedestrian tram rail_urban rail rail_electric rail_fast ship" speed="13.89" length="20.93" width="4.00" shape="360.33,233.79 359.06,233.12 357.64,232.01 356.41,230.71 355.32,229.12 354.37,227.42 353.78,225.77 353.39,224.07 353.24,221.78 353.48,219.45 353.82,218.47" type="driving"/>
    </edge>
    <edge id="-143.0.00" from="4" to="5" priority="1" type="driving" shape="360.50,212.32 360.68,212.24">
        <lane id="-143.0.00_0" index="0" disallow="pedestrian tram rail_urban rail rail_electric rail_fast ship" speed="13.89" length="0.20" width="4.00" shape="356.58,207.45 356.77,207.37" type="driving"/>
        <lane id="-143.0.00_1" index="1" disallow="pedestrian tram rail_urban rail rail_electric rail_fast ship" speed="13.89" length="0.20" width="4.00" shape="358.12,211.14 358.31,211.07" type="driving"/>
    </edge>
    <edge id="-144.0.00" from="6" to="144.end" priority="1" type="driving" shape="373.88,241.78 374.60,251.58 374.70,253.09 374.80,254.87 374.91,256.81 375.01,258.81 375.10,260.76 375.19,262.54 375.27,264.05 375.34,265.58 375.42,267.42 375.51,269.37 375.61,271.21 375.73,272.74 377.35,288.72 377.51,290.43 377.70,292.44 377.90,294.14 380.97,315.03 381.23,316.69 381.55,318.65 381.91,320.79 382.29,322.98 382.67,325.11 383.02,327.07 383.32,328.72 383.63,330.37 384.00,332.33 384.41,334.45 384.83,336.58 385.22,338.54 385.57,340.18 385.93,341.82 386.36,343.75 386.84,345.86 387.34,348.03 387.84,350.14 388.31,352.06 388.74,353.69 396.32,381.37 396.84,382.87 397.60,384.64 398.46,386.48 399.29,388.22 399.96,389.67 400.54,391.01 401.13,392.34 405.74,401.71">
        <lane id="-144.0.00_0" index="0" disallow="pedestrian tram rail_urban rail rail_electric rail_fast ship" speed="13.89" length="161.70" width="4.00" shape="379.93,242.31 380.58,251.14 380.69,252.72 380.79,254.54 380.90,256.51 381.00,258.52 381.09,260.47 381.18,262.24 381.26,263.76 381.33,265.31 381.41,267.16 381.50,269.06 381.60,270.81 381.71,272.20 383.32,288.12 383.48,289.87 383.66,291.82 383.85,293.36 386.91,314.16 387.15,315.75 387.47,317.66 387.82,319.77 388.20,321.94 388.58,324.06 388.92,326.00 389.22,327.64 389.52,329.26 389.89,331.20 390.30,333.31 390.71,335.40 391.10,337.33 391.43,338.92 391.79,340.52 392.21,342.44 392.68,344.53 393.18,346.66 393.67,348.73 394.13,350.59 394.53,352.14 402.05,379.59 402.44,380.70 403.08,382.18 403.89,383.92 404.72,385.67 405.44,387.23 406.03,388.61 406.56,389.79 411.12,399.06" type="driving"/>
        <lane id="-144.0.00_1" index="1" disallow="pedestrian tram rail_urban rail rail_electric rail_fast ship" speed="13.89" length="161.70" width="4.00" shape="375.95,242.60 376.59,251.43 376.70,252.96 376.80,254.76 376.90,256.71 377.00,258.72 377.10,260.66 377.19,262.44 377.26,263.95 377.34,265.49 377.42,267.34 377.50,269.27 377.61,271.08 377.72,272.56 379.34,288.52 379.50,290.24 379.69,292.23 379.88,293.88 382.95,314.74 383.20,316.38 383.52,318.32 383.88,320.45 384.26,322.64 384.64,324.76 384.99,326.71 385.29,328.36 385.59,330.00 385.96,331.96 386.37,334.07 386.79,336.18 387.18,338.13 387.52,339.76 387.88,341.39 388.31,343.31 388.79,345.42 389.28,347.58 389.78,349.67 390.25,351.57 390.67,353.17 398.23,380.77 398.71,382.15 399.42,383.82 400.27,385.63 401.10,387.37 401.79,388.86 402.37,390.21 402.94,391.49 407.53,400.82" type="driving"/>
    </edge>
    <edge id="-145.0.00" from="145.begin" to="5" priority="1" type="driving" shape="0.00,0.00 42.46,40.11 43.82,41.40 54.61,51.60 55.81,52.72 57.01,53.83 80.55,75.71 81.29,76.40 82.03,77.09 83.07,78.06 84.34,79.23 85.60,80.40 86.64,81.38 87.69,82.39 88.95,83.62 90.28,84.92 91.55,86.14 92.61,87.14 93.60,87.92 94.61,88.68 96.00,89.79 97.68,91.15 99.38,92.48 100.83,93.51 102.15,94.32 103.78,95.23 105.51,96.16 107.18,97.01 108.57,97.67 109.94,98.28 111.57,98.96 113.36,99.69 115.21,100.42 117.01,101.12 118.66,101.74 120.07,102.25 121.45,102.72 123.11,103.25 124.90,103.80 126.70,104.33 128.38,104.81 129.78,105.20 131.50,105.64 133.58,106.14 135.68,106.59 137.42,106.89 138.88,107.04 140.63,107.19 142.52,107.31 144.41,107.40 146.16,107.47 147.63,107.49 163.86,107.56 165.47,107.56 167.37,107.55 168.98,107.55 170.48,107.54 172.24,107.54 174.17,107.53 176.15,107.53 178.07,107.52 179.84,107.52 181.33,107.51 183.01,107.51 184.99,107.50 187.16,107.50 189.39,107.49 191.55,107.49 193.54,107.48 195.22,107.48 196.74,107.47 198.55,107.45 200.51,107.43 202.47,107.42 204.28,107.42 205.80,107.45 207.39,107.53 209.32,107.65 211.35,107.80 213.27,107.95 214.86,108.10 216.39,108.25 218.24,108.46 220.19,108.69 222.03,108.93 223.56,109.18 237.48,111.81 239.06,112.13 240.92,112.56 242.94,113.05 245.02,113.59 247.03,114.15 248.85,114.69 250.39,115.19 264.24,120.01 265.76,120.59 267.55,121.35 269.46,122.21 271.36,123.10 273.12,123.94 274.58,124.65 276.13,125.52 277.93,126.62 279.45,127.55 280.82,128.37 282.20,129.19 283.70,130.07 285.51,131.13 287.42,132.25 289.22,133.32 290.70,134.23 292.10,135.16 293.77,136.31 295.43,137.48 296.78,138.47 298.00,139.38 299.45,140.46 301.02,141.64 302.62,142.87 304.17,144.08 305.57,145.21 306.73,146.20 317.46,155.77 318.66,156.89 320.05,158.27 321.53,159.78 322.99,161.32 324.32,162.75 325.42,163.97 326.46,165.19 327.67,166.66 328.96,168.27 330.24,169.89 331.41,171.40 332.37,172.68 341.78,185.25 342.56,186.27 343.31,187.31 344.24,188.75 345.34,190.50 346.50,192.35 347.61,194.10 348.55,195.53 354.78,204.02">
        <lane id="-145.0.00_0" index="0" disallow="pedestrian tram rail_urban rail rail_electric rail_fast ship" speed="13.89" length="431.49" width="4.00" shape="4.12,-4.36 46.58,35.75 47.94,37.04 58.73,47.24 59.89,48.32 61.09,49.43 84.63,71.32 85.37,72.00 86.11,72.69 87.15,73.65 88.42,74.83 89.69,76.01 90.77,77.03 91.87,78.08 93.14,79.32 94.46,80.61 95.69,81.80 96.55,82.60 97.27,83.18 98.29,83.94 99.76,85.12 101.41,86.45 102.98,87.68 104.13,88.50 105.17,89.13 106.66,89.97 108.29,90.84 109.84,91.63 111.07,92.22 112.31,92.76 113.86,93.41 115.60,94.12 117.40,94.83 119.15,95.51 120.75,96.11 122.06,96.59 123.32,97.02 124.90,97.52 126.64,98.06 128.39,98.58 130.00,99.04 131.32,99.40 132.93,99.82 134.91,100.29 136.82,100.70 138.27,100.94 139.44,101.07 141.06,101.20 142.86,101.32 144.67,101.41 146.33,101.47 147.69,101.49 163.88,101.56 165.46,101.56 167.35,101.55 168.97,101.55 170.46,101.54 172.22,101.54 174.15,101.53 176.13,101.53 178.06,101.52 179.82,101.52 181.31,101.51 183.00,101.51 184.98,101.50 187.15,101.50 189.37,101.49 191.54,101.49 193.52,101.48 195.19,101.48 196.69,101.47 198.49,101.45 200.46,101.43 202.46,101.42 204.34,101.43 205.99,101.46 207.72,101.54 209.73,101.66 211.81,101.81 213.78,101.98 215.43,102.13 217.02,102.29 218.92,102.49 220.95,102.73 222.91,103.00 224.60,103.27 238.60,105.91 240.34,106.27 242.30,106.72 244.41,107.23 246.57,107.80 248.67,108.38 250.63,108.96 252.30,109.50 266.23,114.35 268.01,115.03 269.95,115.85 271.96,116.75 273.93,117.67 275.73,118.54 277.37,119.34 279.17,120.34 281.06,121.49 282.56,122.42 283.90,123.22 285.25,124.03 286.73,124.89 288.54,125.95 290.47,127.08 292.33,128.19 293.93,129.18 295.46,130.19 297.21,131.39 298.92,132.61 300.34,133.64 301.60,134.58 303.05,135.66 304.65,136.87 306.29,138.13 307.90,139.39 309.40,140.59 310.67,141.68 321.46,151.30 322.82,152.57 324.31,154.04 325.85,155.62 327.36,157.21 328.75,158.70 329.93,160.02 331.06,161.34 332.33,162.88 333.66,164.54 334.97,166.20 336.17,167.75 337.17,169.07 346.58,181.66 347.36,182.68 348.26,183.91 349.31,185.54 350.42,187.31 351.58,189.15 352.65,190.84 353.48,192.10 359.62,200.47" type="driving"/>
        <lane id="-145.0.00_1" index="1" disallow="pedestrian tram rail_urban rail rail_electric rail_fast ship" speed="13.89" length="431.49" width="4.00" shape="1.37,-1.45 43.83,38.66 45.20,39.95 55.99,50.15 57.17,51.25 58.37,52.36 81.91,74.25 82.65,74.93 83.39,75.62 84.43,76.59 85.70,77.76 86.96,78.94 88.02,79.93 89.08,80.95 90.35,82.19 91.68,83.48 92.93,84.69 93.93,85.63 94.82,86.34 95.83,87.10 97.25,88.24 98.92,89.58 100.58,90.88 101.93,91.84 103.16,92.59 104.74,93.48 106.44,94.39 108.06,95.21 109.41,95.86 110.73,96.44 112.34,97.11 114.11,97.83 115.94,98.56 117.72,99.25 119.36,99.86 120.73,100.37 122.07,100.82 123.70,101.34 125.48,101.88 127.27,102.41 128.92,102.89 130.29,103.27 131.98,103.70 134.02,104.19 136.06,104.62 137.70,104.90 139.07,105.05 140.77,105.19 142.63,105.31 144.50,105.41 146.21,105.47 147.65,105.49 163.87,105.56 165.47,105.56 167.36,105.55 168.98,105.55 170.47,105.54 172.23,105.54 174.16,105.53 176.14,105.53 178.07,105.52 179.83,105.52 181.32,105.51 183.01,105.51 184.99,105.50 187.16,105.50 189.38,105.49 191.55,105.49 193.53,105.48 195.21,105.48 196.72,105.47 198.53,105.45 200.49,105.43 202.46,105.42 204.30,105.43 205.86,105.45 207.50,105.53 209.45,105.65 211.50,105.80 213.44,105.96 215.05,106.11 216.60,106.27 218.47,106.47 220.44,106.70 222.33,106.96 223.90,107.21 237.85,109.84 239.49,110.18 241.38,110.61 243.43,111.11 245.54,111.66 247.57,112.22 249.45,112.78 251.03,113.29 264.90,118.12 266.51,118.73 268.35,119.51 270.29,120.39 272.22,121.29 273.99,122.14 275.51,122.88 277.14,123.80 278.97,124.91 280.49,125.84 281.85,126.65 283.22,127.47 284.71,128.34 286.52,129.40 288.44,130.53 290.26,131.61 291.78,132.55 293.22,133.50 294.92,134.67 296.59,135.86 297.97,136.86 299.20,137.78 300.65,138.86 302.23,140.05 303.84,141.29 305.41,142.52 306.84,143.67 308.04,144.70 318.79,154.28 320.04,155.45 321.47,156.86 322.97,158.39 324.45,159.95 325.80,161.40 326.93,162.65 328.00,163.91 329.23,165.40 330.53,167.03 331.82,168.66 332.99,170.19 333.97,171.47 343.38,184.05 344.16,185.07 344.96,186.18 345.93,187.68 347.03,189.44 348.19,191.29 349.29,193.01 350.20,194.39 356.40,202.84" type="driving"/>
    </edge>
    <edge id="-146.0.00" from="1" to="6" priority="1" type="driving" shape="377.80,225.16 377.08,226.92 376.21,228.49 376.15,228.56">
        <lane id="-146.0.00_0" index="0" disallow="pedestrian tram rail_urban rail rail_electric rail_fast ship" speed="13.89" length="3.59" width="4.00" shape="383.13,227.98 382.50,229.53 381.45,231.41" type="driving"/>
        <lane id="-146.0.00_1" index="1" disallow="pedestrian tram rail_urban rail rail_electric rail_fast ship" speed="13.89" length="3.59" width="4.00" shape="379.43,226.46 378.89,227.79 377.95,229.46" type="driving"/>
    </edge>
    <edge id="-147.0.00" from="4" to="147.end" priority="1" type="driving" shape="353.37,205.93 350.01,198.39 349.32,197.01 348.42,195.42 347.40,193.71 346.35,192.02 345.38,190.45 344.59,189.14 343.98,188.08 343.35,187.03 342.42,185.62 341.29,183.92 340.16,182.23 339.21,180.83 338.39,179.60 337.40,178.10 336.39,176.63 335.50,175.44 326.27,164.13 325.31,162.99 324.12,161.68 322.80,160.28 321.43,158.85 320.08,157.47 318.84,156.22 317.78,155.16 316.56,154.02 315.08,152.67 313.49,151.25 311.98,149.93 310.72,148.83 309.62,147.88 308.31,146.74 306.88,145.52 305.45,144.31 304.11,143.20 302.97,142.31 301.73,141.39 300.26,140.34 298.64,139.21 296.96,138.05 295.32,136.94 293.82,135.93 292.54,135.08 291.17,134.22 289.51,133.20 287.74,132.14 286.07,131.15 284.68,130.31 283.54,129.63 282.41,128.94 281.39,128.32 280.12,127.63 278.61,126.80 276.97,125.91 275.33,125.03 273.80,124.23 272.51,123.58 271.08,122.92 269.39,122.15 267.53,121.33 265.61,120.50 263.74,119.70 262.02,118.99 260.56,118.40 259.17,117.87 257.52,117.26 255.71,116.61 253.84,115.96 252.02,115.33 250.35,114.77 248.93,114.31 247.42,113.84 245.61,113.31 243.64,112.76 241.67,112.21 239.85,111.72 238.32,111.33 236.92,111.01 235.22,110.65 233.42,110.29 231.72,109.96 230.31,109.68 228.88,109.39 227.14,109.04 225.31,108.67 223.58,108.34 222.14,108.09 220.66,107.89 218.88,107.68 217.00,107.48 215.22,107.31 213.74,107.18 212.28,107.06 210.51,106.94 208.65,106.82 206.89,106.74 205.43,106.70 164.95,106.37 163.47,106.37 161.70,106.39 159.79,106.42 157.88,106.45 156.11,106.48 154.63,106.51 140.22,106.70 138.64,106.70 136.79,106.67 135.21,106.59 133.66,106.45 131.79,106.25 129.94,105.98 128.43,105.61 121.22,103.09">
        <lane id="-147.0.00_0" index="0" disallow="pedestrian tram rail_urban rail rail_electric rail_fast ship" speed="13.89" length="267.97" width="4.00" shape="347.51,207.52 344.54,200.87 344.03,199.84 343.23,198.44 342.27,196.83 341.25,195.17 340.27,193.59 339.42,192.19 338.81,191.12 338.28,190.24 337.42,188.93 336.31,187.26 335.18,185.58 334.23,184.17 333.39,182.92 332.43,181.46 331.50,180.11 330.77,179.13 321.63,167.93 320.80,166.95 319.71,165.75 318.45,164.41 317.12,163.02 315.81,161.68 314.60,160.46 313.60,159.47 312.49,158.42 311.07,157.13 309.52,155.75 308.03,154.45 306.78,153.36 305.69,152.41 304.39,151.29 302.99,150.09 301.60,148.91 300.34,147.87 299.33,147.08 298.21,146.25 296.79,145.24 295.21,144.13 293.57,143.00 291.96,141.91 290.49,140.92 289.28,140.12 288.01,139.31 286.41,138.34 284.66,137.29 282.99,136.30 281.58,135.45 280.44,134.76 279.30,134.07 278.41,133.53 277.24,132.89 275.73,132.07 274.11,131.19 272.52,130.33 271.07,129.57 269.91,128.99 268.58,128.37 266.94,127.63 265.12,126.83 263.24,126.01 261.41,125.23 259.75,124.54 258.37,123.99 257.06,123.49 255.47,122.90 253.70,122.27 251.87,121.62 250.09,121.01 248.47,120.47 247.13,120.03 245.70,119.59 243.95,119.08 242.03,118.53 240.10,118.00 238.33,117.53 236.89,117.16 235.63,116.87 234.02,116.53 232.26,116.18 230.57,115.85 229.13,115.56 227.68,115.27 225.95,114.92 224.16,114.56 222.51,114.24 221.23,114.02 219.91,113.85 218.22,113.65 216.39,113.45 214.65,113.28 213.23,113.15 211.83,113.05 210.12,112.93 208.32,112.82 206.66,112.73 205.32,112.70 164.90,112.37 163.50,112.37 161.78,112.38 159.89,112.41 157.99,112.45 156.22,112.48 154.71,112.51 140.29,112.70 138.60,112.70 136.59,112.67 134.79,112.57 133.08,112.42 131.04,112.21 128.78,111.88 126.73,111.37 119.24,108.76" type="driving"/>
        <lane id="-147.0.00_1" index="1" disallow="pedestrian tram rail_urban rail rail_electric rail_fast ship" speed="13.89" length="267.97" width="4.00" shape="351.16,205.89 348.19,199.22 347.56,197.96 346.69,196.42 345.69,194.75 344.65,193.07 343.68,191.50 342.87,190.15 342.25,189.09 341.66,188.10 340.76,186.72 339.63,185.04 338.50,183.35 337.55,181.95 336.73,180.70 335.74,179.22 334.76,177.79 333.92,176.67 324.73,165.39 323.80,164.31 322.65,163.04 321.35,161.65 319.99,160.24 318.66,158.87 317.42,157.63 316.38,156.60 315.21,155.48 313.74,154.15 312.16,152.75 310.66,151.44 309.40,150.34 308.31,149.39 307.00,148.26 305.58,147.04 304.17,145.84 302.85,144.76 301.75,143.90 300.56,143.01 299.10,141.97 297.50,140.85 295.83,139.70 294.20,138.60 292.71,137.59 291.45,136.76 290.12,135.92 288.47,134.91 286.72,133.86 285.04,132.86 283.65,132.03 282.51,131.34 281.37,130.65 280.39,130.06 279.16,129.38 277.65,128.56 276.02,127.67 274.39,126.79 272.89,126.01 271.64,125.39 270.25,124.74 268.57,123.98 266.73,123.16 264.82,122.34 262.97,121.55 261.27,120.84 259.83,120.26 258.47,119.74 256.83,119.14 255.04,118.50 253.19,117.85 251.38,117.22 249.72,116.67 248.33,116.22 246.85,115.76 245.05,115.24 243.10,114.68 241.15,114.14 239.34,113.66 237.84,113.27 236.49,112.96 234.82,112.61 233.04,112.26 231.34,111.92 229.92,111.64 228.48,111.35 226.75,111.00 224.93,110.63 223.22,110.31 221.83,110.07 220.41,109.88 218.66,109.67 216.80,109.47 215.03,109.30 213.57,109.17 212.13,109.06 210.38,108.93 208.54,108.82 206.81,108.74 205.39,108.70 164.93,108.37 163.48,108.37 161.73,108.39 159.83,108.42 157.92,108.45 156.15,108.48 154.66,108.51 140.25,108.70 138.63,108.70 136.72,108.67 135.07,108.58 133.47,108.44 131.54,108.24 129.55,107.95 127.87,107.53 120.56,104.98" type="driving"/>
    </edge>