<?xml version="1.0" encoding="UTF-8"?>

<!-- generated on 2022-02-02 11:42:36 by Eclipse SUMO netedit Version 1.11.0
<configuration xmlns:xsi="http://www.w3.org/2001/XMLSchema-instance" xsi:noNamespaceSchemaLocation="http://sumo.dlr.de/xsd/netconvertConfiguration.xsd">

    <input>
        <sumo-net-file value="D:\script_carla\map_net_xml\rond_point_crous.net.xml"/>
    </input>

    <output>
        <output-file value="D:\script_carla\map_net_xml\rond_point_crous.net.xml"/>
    </output>

    <processing>
        <geometry.min-radius.fix.railways value="false"/>
        <geometry.max-grade.fix value="false"/>
        <offset.disable-normalization value="true"/>
        <lefthand value="false"/>
    </processing>

    <junctions>
        <no-turnarounds value="true"/>
        <junctions.corner-detail value="5"/>
        <junctions.limit-turn-speed value="5.5"/>
        <rectangular-lane-cut value="true"/>
    </junctions>

    <pedestrian>
        <walkingareas value="false"/>
    </pedestrian>

    <report>
        <aggregate-warnings value="5"/>
    </report>

</configuration>
-->

<net version="1.9" junctionCornerDetail="5" rectangularLaneCut="true" limitTurnSpeed="5.50" xmlns:xsi="http://www.w3.org/2001/XMLSchema-instance" xsi:noNamespaceSchemaLocation="http://sumo.dlr.de/xsd/net_file.xsd">

    <location netOffset="-1.75,-3.96" convBoundary="22.63,0.00,265.50,133.57" origBoundary="1.75,3.96,267.25,170.19" projParameter="!"/>

    <type id="bidirectional" priority="1" speed="1.39" disallow="pedestrian tram rail_urban rail rail_electric rail_fast ship" width="3.65"/>
    <type id="border" priority="0" speed="1.39" disallow="all" discard="1" width="0.10"/>
    <type id="driving" priority="1" speed="13.89" disallow="pedestrian tram rail_urban rail rail_electric rail_fast ship" width="3.65"/>
    <type id="entry" priority="1" speed="22.22" disallow="pedestrian tram rail_urban rail rail_electric rail_fast ship" width="3.65"/>
    <type id="exit" priority="1" speed="22.22" disallow="pedestrian tram rail_urban rail rail_electric rail_fast ship" width="3.65"/>
    <type id="median" priority="0" speed="1.39" disallow="all" discard="1" width="0.10"/>
    <type id="mwyEntry" priority="1" speed="22.22" allow="private emergency authority army vip passenger hov taxi bus coach delivery truck trailer motorcycle evehicle custom1 custom2" width="3.65"/>
    <type id="mwyExit" priority="1" speed="22.22" allow="private emergency authority army vip passenger hov taxi bus coach delivery truck trailer motorcycle evehicle custom1 custom2" width="3.65"/>
    <type id="none" priority="0" speed="1.39" disallow="all" discard="1" width="1.00"/>
    <type id="offRamp" priority="1" speed="22.22" allow="private emergency authority army vip passenger hov taxi bus coach delivery truck trailer motorcycle evehicle custom1 custom2" width="3.65"/>
    <type id="onRamp" priority="1" speed="22.22" allow="private emergency authority army vip passenger hov taxi bus coach delivery truck trailer motorcycle evehicle custom1 custom2" width="3.65"/>
    <type id="parking" priority="1" speed="1.39" disallow="pedestrian tram rail_urban rail rail_electric rail_fast ship" width="2.50"/>
    <type id="rail" priority="3" speed="33.33" allow="rail_urban rail rail_electric rail_fast" width="3.65"/>
    <type id="restricted" priority="0" speed="13.89" disallow="all" width="3.65"/>
    <type id="roadWorks" priority="0" speed="1.39" allow="authority" width="3.65"/>
    <type id="shoulder" priority="0" speed="1.39" disallow="all" discard="1" width="1.00"/>
    <type id="special1" priority="1" speed="22.22" allow="custom1" discard="1" width="3.65"/>
    <type id="special2" priority="1" speed="22.22" allow="custom2" discard="1" width="3.65"/>
    <type id="special3" priority="1" speed="22.22" allow="custom1 custom2" discard="1" width="3.65"/>
    <type id="stop" priority="1" speed="13.89" disallow="pedestrian tram rail_urban rail rail_electric rail_fast ship" width="3.65"/>
    <type id="tram" priority="2" speed="13.89" allow="tram" width="3.65"/>

    <edge id=":1_0" function="internal">
        <lane id=":1_0_0" index="0" disallow="pedestrian tram rail_urban rail rail_electric rail_fast ship" speed="8.61" length="7.15" width="4.00" shape="132.72,25.98 132.82,27.51 133.34,29.07 134.28,30.66 135.63,32.29"/>
    </edge>
    <edge id=":1_1" function="internal">
        <lane id=":1_1_0" index="0" disallow="pedestrian tram rail_urban rail rail_electric rail_fast ship" speed="13.89" length="8.08" width="4.00" shape="132.72,25.98 132.40,28.57 131.87,30.30 131.01,31.93 129.70,34.24"/>
        <lane id=":1_1_1" index="1" disallow="pedestrian tram rail_urban rail rail_electric rail_fast ship" speed="13.89" length="8.08" width="4.00" shape="128.73,25.68 128.46,27.79 127.99,29.17 127.25,30.48 126.17,32.35"/>
    </edge>
    <edge id=":3_0" function="internal">
        <lane id=":3_0_0" index="0" disallow="pedestrian tram rail_urban rail rail_electric rail_fast ship" speed="13.89" length="7.41" width="4.00" shape="87.57,41.80 85.66,40.30 84.49,39.09 83.56,37.68 82.36,35.55"/>
        <lane id=":3_0_1" index="1" disallow="pedestrian tram rail_urban rail rail_electric rail_fast ship" speed="13.89" length="7.41" width="4.00" shape="89.96,38.60 88.45,37.39 87.53,36.42 86.80,35.28 85.85,33.58"/>
    </edge>
    <edge id=":3_2" function="internal">
        <lane id=":3_2_0" index="0" disallow="pedestrian tram rail_urban rail rail_electric rail_fast ship" speed="7.67" length="7.77" width="4.00" shape="81.47,42.90 82.51,40.83 83.01,38.92 82.96,37.16 82.36,35.55"/>
    </edge>
    <edge id=":4_0" function="internal">
        <lane id=":4_0_0" index="0" disallow="pedestrian tram rail_urban rail rail_electric rail_fast ship" speed="11.34" length="10.52" width="4.00" shape="101.61,48.45 98.54,48.54 96.44,49.08 94.57,50.25 92.22,52.23"/>
    </edge>
    <edge id=":4_1" function="internal">
        <lane id=":4_1_0" index="0" disallow="pedestrian tram rail_urban rail rail_electric rail_fast ship" speed="13.89" length="13.17" width="4.00" shape="101.61,48.45 97.44,48.08 94.69,47.11 92.20,45.38 88.82,42.74"/>
        <lane id=":4_1_1" index="1" disallow="pedestrian tram rail_urban rail rail_electric rail_fast ship" speed="13.72" length="13.17" width="4.00" shape="101.69,44.45 98.26,44.12 96.02,43.24 93.99,41.74 91.21,39.53"/>
    </edge>
    <edge id=":6_0" function="internal">
        <lane id=":6_0_0" index="0" disallow="pedestrian tram rail_urban rail rail_electric rail_fast ship" speed="9.46" length="11.61" width="4.00" shape="126.35,50.39 123.00,48.24 120.11,46.91 117.69,46.40 115.74,46.72"/>
        <lane id=":6_0_1" index="1" disallow="pedestrian tram rail_urban rail rail_electric rail_fast ship" speed="10.89" length="15.78" width="4.00" shape="128.75,47.19 124.47,44.48 120.61,42.89 117.18,42.41 114.17,43.04"/>
    </edge>
    <edge id=":6_2" function="internal">
        <lane id=":6_2_0" index="0" disallow="pedestrian tram rail_urban rail rail_electric rail_fast ship" speed="13.89" length="11.64" width="4.00" shape="125.89,39.64 123.43,42.41 121.46,44.06 119.17,45.26 115.74,46.72"/>
        <lane id=":6_2_1" index="1" disallow="pedestrian tram rail_urban rail rail_electric rail_fast ship" speed="13.89" length="11.64" width="4.00" shape="122.82,37.08 120.73,39.42 119.05,40.80 117.09,41.81 114.17,43.04"/>
    </edge>
    <edge id=":7_0" function="internal">
        <lane id=":7_0_0" index="0" disallow="pedestrian tram rail_urban rail rail_electric rail_fast ship" speed="8.33" length="8.17" width="4.00" shape="156.30,67.31 154.08,66.39 152.37,66.18 150.68,65.93 148.53,64.90"/>
        <lane id=":7_0_1" index="1" disallow="pedestrian tram rail_urban rail rail_electric rail_fast ship" speed="8.33" length="8.17" width="4.00" shape="156.30,67.31 154.43,65.88 153.46,64.50 152.51,63.09 150.71,61.55"/>
    </edge>

    <edge id="-110.0.00" from="1" to="110.end" priority="1" type="driving" shape="134.06,33.54 135.11,34.64 136.38,35.90 137.79,37.27 139.25,38.66 140.69,39.99 142.02,41.20 143.16,42.21 158.98,55.87 160.26,56.96 161.79,58.21 163.48,59.57 165.22,60.95 166.93,62.28 168.51,63.48 169.86,64.48 196.78,83.92 198.15,84.91 199.76,86.07 201.51,87.34 203.32,88.64 205.07,89.91 206.68,91.07 208.04,92.06 265.50,133.57">
        <lane id="-110.0.00_0" index="0" disallow="pedestrian tram rail_urban rail rail_electric rail_fast ship" speed="13.89" length="164.79" width="4.00" shape="135.63,32.29 136.54,33.24 137.78,34.47 139.18,35.83 140.62,37.20 142.04,38.52 143.36,39.71 144.48,40.70 160.29,54.36 161.54,55.42 163.05,56.66 164.73,58.01 166.46,59.38 168.15,60.69 169.71,61.88 171.04,62.87 197.95,82.30 199.32,83.29 200.93,84.45 202.68,85.72 204.49,87.02 206.24,88.29 207.85,89.45 209.21,90.44 266.67,131.95" type="driving"/>
    </edge>
    <edge id="-111.0.00" from="2" to="3" priority="1" type="driving" shape="25.64,116.11 41.41,99.84 42.56,98.62 43.90,97.15 45.33,95.53 46.79,93.85 48.19,92.20 49.45,90.67 50.49,89.36 61.86,74.66 62.88,73.32 64.07,71.74 65.36,70.00 66.68,68.21 67.97,66.46 69.14,64.86 70.12,63.50 71.11,62.14 72.27,60.53 73.53,58.78 74.82,56.97 76.07,55.20 77.20,53.58 78.14,52.19 83.39,43.60">
        <lane id="-111.0.00_0" index="0" disallow="pedestrian tram rail_urban rail rail_electric rail_fast ship" speed="13.89" length="92.29" width="4.00" shape="24.06,114.87 39.97,98.45 41.09,97.26 42.41,95.82 43.83,94.21 45.27,92.55 46.66,90.92 47.90,89.41 48.92,88.13 60.28,73.44 61.29,72.11 62.47,70.54 63.75,68.81 65.07,67.02 66.36,65.28 67.52,63.68 68.50,62.33 69.49,60.97 70.65,59.36 71.90,57.62 73.19,55.81 74.43,54.05 75.55,52.45 76.46,51.11 81.47,42.90" type="driving"/>
    </edge>
    <edge id="-113.0.00" from="4" to="5" priority="1" type="driving" shape="90.90,50.73 90.67,50.93 89.45,52.08 88.05,53.48 86.56,55.04 85.06,56.68 83.64,58.30 82.36,59.81 81.33,61.12 72.94,72.30">
        <lane id="-113.0.00_0" index="0" disallow="pedestrian tram rail_urban rail rail_electric rail_fast ship" speed="13.89" length="27.86" width="4.00" shape="92.22,52.23 92.03,52.39 90.84,53.51 89.48,54.88 88.02,56.41 86.55,58.01 85.15,59.61 83.91,61.08 82.92,62.34 74.45,73.62" type="driving"/>
    </edge>
    <edge id="-114.0.00" from="6" to="4" priority="1" type="driving" shape="113.39,41.20 112.99,41.37 111.64,41.81 110.25,42.16 108.89,42.43 107.50,42.57 101.73,42.45">
        <lane id="-114.0.00_0" index="0" disallow="pedestrian tram rail_urban rail rail_electric rail_fast ship" speed="13.89" length="13.53" width="4.00" shape="115.74,46.72 115.10,46.99 113.30,47.58 111.57,48.01 109.78,48.37 107.74,48.58 101.61,48.45" type="driving"/>
        <lane id="-114.0.00_1" index="1" disallow="pedestrian tram rail_urban rail rail_electric rail_fast ship" speed="13.89" length="13.53" width="4.00" shape="114.17,43.04 113.69,43.24 112.19,43.73 110.69,44.11 109.19,44.41 107.58,44.57 101.69,44.45" type="driving"/>
    </edge>
    <edge id="-115.0.00" from="4" to="3" priority="1" type="driving" shape="92.41,37.93 91.03,36.90">
        <lane id="-115.0.00_0" index="0" disallow="pedestrian tram rail_urban rail rail_electric rail_fast ship" speed="13.89" length="1.56" width="4.00" shape="88.82,42.74 87.57,41.80" type="driving"/>
        <lane id="-115.0.00_1" index="1" disallow="pedestrian tram rail_urban rail rail_electric rail_fast ship" speed="13.89" length="1.56" width="4.00" shape="91.21,39.53 89.96,38.60" type="driving"/>
    </edge>
    <edge id="-116.0.00" from="3" to="1" priority="1" type="driving" shape="87.64,32.69 86.01,29.80 85.47,28.53 85.00,26.96 84.68,25.60 84.46,24.23 84.29,22.60 84.23,21.21 84.31,19.82 84.48,18.20 84.71,16.83 85.07,15.48 85.57,13.92 86.08,12.62 86.72,11.40 87.56,9.99 88.28,8.81 88.62,8.44 89.90,6.95 91.24,5.52 92.31,4.63 93.63,3.66 94.80,2.89 96.08,2.24 97.62,1.56 98.95,1.01 100.21,0.61 101.49,0.27 102.96,0.10 104.42,0.04 106.14,0.00 107.59,0.04 108.98,0.23 110.60,0.54 111.95,0.89 113.27,1.36 114.78,2.00 116.03,2.62 117.22,3.34 118.57,4.28 119.67,5.13 120.68,6.09 121.81,7.28 122.71,8.34 123.50,9.49 124.35,10.89 125.01,12.12 125.55,13.40 126.10,14.94 126.50,16.27 126.79,17.64 127.03,19.26 127.09,20.64 126.69,26.13">
        <lane id="-116.0.00_0" index="0" disallow="pedestrian tram rail_urban rail rail_electric rail_fast ship" speed="13.89" length="98.29" width="4.00" shape="82.36,35.55 80.62,32.46 79.82,30.57 79.21,28.52 78.79,26.76 78.51,25.00 78.31,23.06 78.22,21.17 78.33,19.32 78.53,17.40 78.84,15.56 79.32,13.78 79.91,11.92 80.61,10.12 81.49,8.46 82.42,6.89 83.33,5.42 84.10,4.50 85.43,2.94 87.12,1.15 88.62,-0.11 90.19,-1.26 91.78,-2.31 93.52,-3.19 95.26,-3.95 96.89,-4.63 98.53,-5.15 100.37,-5.64 102.49,-5.89 104.23,-5.96 106.14,-6.00 108.08,-5.95 109.96,-5.69 111.90,-5.32 113.71,-4.85 115.46,-4.23 117.27,-3.46 118.92,-2.64 120.49,-1.69 122.11,-0.56 123.58,0.57 124.93,1.86 126.26,3.26 127.48,4.69 128.55,6.24 129.55,7.90 130.43,9.53 131.15,11.24 131.80,13.05 132.32,14.78 132.70,16.58 133.01,18.69 133.10,20.73 132.72,25.98" type="driving"/>
        <lane id="-116.0.00_1" index="1" disallow="pedestrian tram rail_urban rail rail_electric rail_fast ship" speed="13.89" length="98.29" width="4.00" shape="85.85,33.58 84.21,30.69 83.59,29.21 83.07,27.48 82.72,25.99 82.48,24.49 82.30,22.75 82.23,21.20 82.32,19.65 82.50,17.93 82.75,16.41 83.15,14.91 83.68,13.25 84.26,11.79 84.98,10.42 85.85,8.96 86.63,7.68 87.11,7.13 88.41,5.61 89.87,4.06 91.08,3.05 92.48,2.02 93.79,1.16 95.23,0.43 96.83,-0.28 98.26,-0.87 99.65,-1.31 101.12,-1.70 102.80,-1.90 104.36,-1.96 106.14,-2.00 107.75,-1.96 109.31,-1.74 111.03,-1.41 112.54,-1.02 114.00,-0.50 115.61,0.18 116.99,0.87 118.31,1.66 119.75,2.67 120.97,3.61 122.10,4.68 123.29,5.94 124.30,7.12 125.18,8.41 126.08,9.89 126.82,11.26 127.42,12.68 128.00,14.31 128.44,15.77 128.76,17.29 129.02,19.07 129.09,20.67 128.73,25.68" type="driving"/>
    </edge>
    <edge id="-117.0.00" from="1" to="6" priority="1" type="driving" shape="124.41,31.41 123.47,33.17 123.18,33.52 120.68,36.52">
        <lane id="-117.0.00_0" index="0" disallow="pedestrian tram rail_urban rail rail_electric rail_fast ship" speed="13.89" length="6.23" width="4.00" shape="129.70,34.24 128.65,36.19 127.79,37.36 125.89,39.64" type="driving"/>
        <lane id="-117.0.00_1" index="1" disallow="pedestrian tram rail_urban rail rail_electric rail_fast ship" speed="13.89" length="6.23" width="4.00" shape="126.17,32.35 125.20,34.18 124.72,34.80 122.82,37.08" type="driving"/>
    </edge>
    <edge id="-119.0.00" from="7" to="6" priority="1" type="driving" shape="151.80,59.87 134.83,48.82 130.03,45.65 129.95,45.59">
        <lane id="-119.0.00_0" index="0" disallow="pedestrian tram rail_urban rail rail_electric rail_fast ship" speed="8.33" length="26.37" width="4.00" shape="148.53,64.90 131.55,53.84 126.72,50.65 126.35,50.39" type="driving"/>
        <lane id="-119.0.00_1" index="1" disallow="pedestrian tram rail_urban rail rail_electric rail_fast ship" speed="8.33" length="26.37" width="4.00" shape="150.71,61.55 133.74,50.49 128.93,47.32 128.75,47.19" type="driving"/>
    </edge>
    <edge id="-120.0.00" from="120.begin" to="7" priority="1" type="driving" shape="234.22,121.56 167.43,71.96 166.24,71.11 164.78,70.12 163.22,69.10 161.73,68.16 160.47,67.40 157.30,65.58">
        <lane id="-120.0.00_0" index="0" disallow="pedestrian tram rail_urban rail rail_electric rail_fast ship" speed="8.33" length="94.94" width="4.00" shape="233.03,123.17 166.24,73.57 165.10,72.75 163.67,71.78 162.14,70.78 160.68,69.86 159.46,69.13 156.30,67.31" type="driving"/>
    </edge>

    <junction id="1" type="priority" x="129.20" y="29.80" incLanes="-116.0.00_0 -116.0.00_1" intLanes=":1_0_0 :1_1_0 :1_1_1" shape="134.19,33.67 137.08,30.91 135.70,29.20 135.23,28.39 134.91,27.61 134.73,26.85 134.71,26.12 126.73,25.54 126.36,27.84 126.04,28.61 125.62,29.35 125.08,30.23 124.41,31.41 131.46,35.18 132.43,33.77 132.89,33.41 133.34,33.27 133.77,33.36">
        <request index="0" response="000" foes="000" cont="0"/>
        <request index="1" response="000" foes="000" cont="0"/>
        <request index="2" response="000" foes="000" cont="0"/>
    </junction>
    <junction id="110.end" type="dead_end" x="265.50" y="133.57" incLanes="-110.0.00_0" intLanes="" shape="267.84,130.33 265.50,133.57"/>
    <junction id="120.begin" type="dead_end" x="234.22" y="121.56" incLanes="" intLanes="" shape="234.22,121.56 231.84,124.77"/>
    <junction id="2" type="dead_end" x="22.63" y="113.48" incLanes="" intLanes="" shape="25.50,116.26 22.62,113.47"/>
    <junction id="3" type="priority" x="87.21" y="38.14" incLanes="-115.0.00_0 -115.0.00_1 -111.0.00_0" intLanes=":3_0_0 :3_0_1 :3_2_0" shape="86.37,43.41 91.16,37.00 89.53,35.65 89.04,35.09 88.63,34.46 88.18,33.66 87.59,32.60 80.62,36.53 81.04,38.03 80.98,38.88 80.75,39.81 80.35,40.80 79.77,41.86 83.18,43.94 84.08,42.99 84.59,42.81 85.14,42.81 85.74,43.01">
        <request index="0" response="000" foes="100" cont="0"/>
        <request index="1" response="000" foes="000" cont="0"/>
        <request index="2" response="001" foes="001" cont="0"/>
    </junction>
    <junction id="4" type="priority" x="96.31" y="44.33" incLanes="-114.0.00_0 -114.0.00_1" intLanes=":4_0_0 :4_1_0 :4_1_1" shape="101.56,50.45 101.73,42.45 99.53,42.29 97.93,41.92 96.68,41.31 95.52,40.45 94.18,39.33 92.41,37.93 87.62,44.34 89.30,45.70 90.53,46.95 91.30,48.07 91.62,49.07 91.49,49.96 90.91,50.72 93.52,53.75 96.11,51.63 97.16,51.02 98.28,50.64 99.69,50.47">
        <request index="0" response="000" foes="000" cont="0"/>
        <request index="1" response="000" foes="000" cont="0"/>
        <request index="2" response="000" foes="000" cont="0"/>
    </junction>
    <junction id="5" type="dead_end" x="72.85" y="72.42" incLanes="-113.0.00_0" intLanes="" shape="76.05,74.82 72.85,72.42"/>
    <junction id="6" type="priority" x="121.67" y="41.06" incLanes="-119.0.00_0 -119.0.00_1 -117.0.00_0 -117.0.00_1" intLanes=":6_0_0 :6_0_1 :6_2_0 :6_2_1" shape="125.19,52.02 129.92,45.57 127.88,43.77 127.31,42.97 127.05,42.22 127.09,41.54 127.43,40.92 121.28,35.80 119.94,37.34 118.85,38.42 117.84,39.18 116.71,39.78 115.29,40.41 113.39,41.20 116.52,48.56 118.55,48.49 119.89,48.92 121.44,49.64 123.21,50.68">
        <request index="0" response="0100" foes="0100" cont="0"/>
        <request index="1" response="1100" foes="1100" cont="0"/>
        <request index="2" response="0000" foes="0011" cont="0"/>
        <request index="3" response="0000" foes="0010" cont="0"/>
    </junction>
    <junction id="7" type="priority" x="153.46" y="62.73" incLanes="-120.0.00_0" intLanes=":7_0_0 :7_0_1" shape="155.31,69.05 157.30,65.58 155.09,63.70 154.51,62.80 153.94,61.87 153.12,60.91 151.80,59.87 147.43,66.57 150.22,67.76 151.33,67.89 152.45,67.99 153.72,68.31">
        <request index="0" response="00" foes="00" cont="0"/>
        <request index="1" response="00" foes="00" cont="0"/>
    </junction>

    <connection from="-111.0.00" to="-116.0.00" fromLane="0" toLane="0" via=":3_2_0" dir="r" state="m" visibility="9.00"/>
    <connection from="-114.0.00" to="-113.0.00" fromLane="0" toLane="0" via=":4_0_0" dir="R" state="M"/>
    <connection from="-114.0.00" to="-115.0.00" fromLane="0" toLane="0" via=":4_1_0" dir="s" state="M"/>
    <connection from="-114.0.00" to="-115.0.00" fromLane="1" toLane="1" via=":4_1_1" dir="s" state="M"/>
    <connection from="-115.0.00" to="-116.0.00" fromLane="0" toLane="0" via=":3_0_0" dir="s" state="M"/>
    <connection from="-115.0.00" to="-116.0.00" fromLane="1" toLane="1" via=":3_0_1" dir="s" state="M"/>
    <connection from="-116.0.00" to="-110.0.00" fromLane="0" toLane="0" via=":1_0_0" dir="r" state="M"/>
    <connection from="-116.0.00" to="-117.0.00" fromLane="0" toLane="0" via=":1_1_0" dir="s" state="M"/>
    <connection from="-116.0.00" to="-117.0.00" fromLane="1" toLane="1" via=":1_1_1" dir="s" state="M"/>
    <connection from="-117.0.00" to="-114.0.00" fromLane="0" toLane="0" via=":6_2_0" dir="s" state="M"/>
    <connection from="-117.0.00" to="-114.0.00" fromLane="1" toLane="1" via=":6_2_1" dir="s" state="M"/>
    <connection from="-119.0.00" to="-114.0.00" fromLane="0" toLane="0" via=":6_0_0" dir="r" state="m" visibility="9.00"/>
    <connection from="-119.0.00" to="-114.0.00" fromLane="1" toLane="1" via=":6_0_1" dir="r" state="m" visibility="9.00"/>
    <connection from="-120.0.00" to="-119.0.00" fromLane="0" toLane="0" via=":7_0_0" dir="s" state="M"/>
    <connection from="-120.0.00" to="-119.0.00" fromLane="0" toLane="1" via=":7_0_1" dir="s" state="M"/>

    <connection from=":1_0" to="-110.0.00" fromLane="0" toLane="0" dir="r" state="M"/>
    <connection from=":1_1" to="-117.0.00" fromLane="0" toLane="0" dir="s" state="M"/>
    <connection from=":1_1" to="-117.0.00" fromLane="1" toLane="1" dir="s" state="M"/>
    <connection from=":3_0" to="-116.0.00" fromLane="0" toLane="0" dir="s" state="M"/>
    <connection from=":3_0" to="-116.0.00" fromLane="1" toLane="1" dir="s" state="M"/>
    <connection from=":3_2" to="-116.0.00" fromLane="0" toLane="0" dir="r" state="M"/>
    <connection from=":4_0" to="-113.0.00" fromLane="0" toLane="0" dir="R" state="M"/>
    <connection from=":4_1" to="-115.0.00" fromLane="0" toLane="0" dir="s" state="M"/>
    <connection from=":4_1" to="-115.0.00" fromLane="1" toLane="1" dir="s" state="M"/>
    <connection from=":6_0" to="-114.0.00" fromLane="0" toLane="0" dir="r" state="M"/>
    <connection from=":6_0" to="-114.0.00" fromLane="1" toLane="1" dir="r" state="M"/>
    <connection from=":6_2" to="-114.0.00" fromLane="0" toLane="0" dir="s" state="M"/>
    <connection from=":6_2" to="-114.0.00" fromLane="1" toLane="1" dir="s" state="M"/>
    <connection from=":7_0" to="-119.0.00" fromLane="0" toLane="0" dir="s" state="M"/>
    <connection from=":7_0" to="-119.0.00" fromLane="1" toLane="1" dir="s" state="M"/>

    <roundabout nodes="1 3 4 6" edges="-114.0.00 -115.0.00 -116.0.00 -117.0.00"/>

</net>
