<?xml version="1.0" encoding="UTF-8"?>

<!-- generated on 2022-02-21 11:02:23 by Eclipse SUMO netconvert Version 1.11.0
<configuration xmlns:xsi="http://www.w3.org/2001/XMLSchema-instance" xsi:noNamespaceSchemaLocation="http://sumo.dlr.de/xsd/netconvertConfiguration.xsd">

    <input>
        <opendrive-files value="./map_xodr/routes_gers.xodr"/>
    </input>

    <output>
        <output-file value="./map_net_xml/routes_gers.net.xml"/>
    </output>

    <processing>
        <geometry.max-grade.fix value="false"/>
    </processing>

    <tls_building>
        <tls.left-green.time value="0"/>
    </tls_building>

    <junctions>
        <rectangular-lane-cut value="true"/>
    </junctions>

    <report>
        <aggregate-warnings value="5"/>
    </report>

</configuration>
-->

<net version="1.9" junctionCornerDetail="5" rectangularLaneCut="true" limitTurnSpeed="5.50" xmlns:xsi="http://www.w3.org/2001/XMLSchema-instance" xsi:noNamespaceSchemaLocation="http://sumo.dlr.de/xsd/net_file.xsd">

    <location netOffset="0.54,0.00" convBoundary="0.00,0.00,4657.93,4750.97" origBoundary="-3.60,0.00,4659.52,4754.26" projParameter="!"/>

    <type id="bidirectional" priority="1" speed="1.39" disallow="pedestrian tram rail_urban rail rail_electric rail_fast ship" width="3.65"/>
    <type id="border" priority="0" speed="1.39" disallow="all" discard="1" width="0.10"/>
    <type id="driving" priority="1" speed="13.89" disallow="pedestrian tram rail_urban rail rail_electric rail_fast ship" width="3.65"/>
    <type id="entry" priority="1" speed="22.22" disallow="pedestrian tram rail_urban rail rail_electric rail_fast ship" width="3.65"/>
    <type id="exit" priority="1" speed="22.22" disallow="pedestrian tram rail_urban rail rail_electric rail_fast ship" width="3.65"/>
    <type id="median" priority="0" speed="1.39" disallow="all" discard="1" width="0.10"/>
    <type id="mwyEntry" priority="1" speed="22.22" allow="private emergency authority army vip passenger hov taxi bus coach delivery truck trailer motorcycle evehicle custom1 custom2" width="3.65"/>
    <type id="mwyExit" priority="1" speed="22.22" allow="private emergency authority army vip passenger hov taxi bus coach delivery truck trailer motorcycle evehicle custom1 custom2" width="3.65"/>
    <type id="none" priority="0" speed="1.39" disallow="all" discard="1" width="1.00"/>
    <type id="offRamp" priority="1" speed="22.22" allow="private emergency authority army vip passenger hov taxi bus coach delivery truck trailer motorcycle evehicle custom1 custom2" width="3.65"/>
    <type id="onRamp" priority="1" speed="22.22" allow="private emergency authority army vip passenger hov taxi bus coach delivery truck trailer motorcycle evehicle custom1 custom2" width="3.65"/>
    <type id="parking" priority="1" speed="1.39" disallow="pedestrian tram rail_urban rail rail_electric rail_fast ship" width="2.50"/>
    <type id="rail" priority="3" speed="33.33" allow="rail_urban rail rail_electric rail_fast" width="3.65"/>
    <type id="restricted" priority="0" speed="13.89" disallow="all" width="3.65"/>
    <type id="roadWorks" priority="0" speed="1.39" allow="authority" width="3.65"/>
    <type id="shoulder" priority="0" speed="1.39" disallow="all" discard="1" width="1.00"/>
    <type id="special1" priority="1" speed="22.22" allow="custom1" discard="1" width="3.65"/>
    <type id="special2" priority="1" speed="22.22" allow="custom2" discard="1" width="3.65"/>
    <type id="special3" priority="1" speed="22.22" allow="custom1 custom2" discard="1" width="3.65"/>
    <type id="stop" priority="1" speed="13.89" disallow="pedestrian tram rail_urban rail rail_electric rail_fast ship" width="3.65"/>
    <type id="tram" priority="2" speed="13.89" allow="tram" width="3.65"/>

    <edge id=":1_0" function="internal">
        <lane id=":1_0_0" index="0" disallow="pedestrian tram rail_urban rail rail_electric rail_fast ship" speed="22.22" length="19.75" width="4.00" shape="1312.70,1149.72 1311.52,1145.38 1309.88,1140.25 1308.03,1135.20 1306.24,1131.08"/>
    </edge>
    <edge id=":1_1" function="internal">
        <lane id=":1_1_0" index="0" disallow="pedestrian tram rail_urban rail rail_electric rail_fast ship" speed="16.82" length="6.58" width="4.00" shape="1312.70,1149.72 1312.56,1145.11 1312.89,1143.17"/>
    </edge>
    <edge id=":1_2" function="internal">
        <lane id=":1_2_0" index="0" disallow="pedestrian tram rail_urban rail rail_electric rail_fast ship" speed="4.08" length="2.92" width="4.00" shape="1312.70,1149.72 1313.33,1148.03 1314.19,1147.31"/>
    </edge>
    <edge id=":1_7" function="internal">
        <lane id=":1_7_0" index="0" disallow="pedestrian tram rail_urban rail rail_electric rail_fast ship" speed="16.82" length="14.47" width="4.00" shape="1312.89,1143.17 1313.54,1139.37 1315.13,1133.70 1316.85,1129.29"/>
    </edge>
    <edge id=":1_8" function="internal">
        <lane id=":1_8_0" index="0" disallow="pedestrian tram rail_urban rail rail_electric rail_fast ship" speed="4.08" length="2.92" width="4.00" shape="1314.19,1147.31 1315.28,1147.57 1316.60,1148.80"/>
    </edge>
    <edge id=":1_3" function="internal">
        <lane id=":1_3_0" index="0" disallow="pedestrian tram rail_urban rail rail_electric rail_fast ship" speed="17.42" length="18.19" width="4.00" shape="1320.56,1131.26 1319.02,1135.28 1317.47,1139.95 1316.48,1144.66 1316.60,1148.80"/>
    </edge>
    <edge id=":1_4" function="internal">
        <lane id=":1_4_0" index="0" disallow="pedestrian tram rail_urban rail rail_electric rail_fast ship" speed="8.09" length="22.32" width="4.00" shape="1320.56,1131.26 1317.34,1137.28 1313.89,1139.26 1310.18,1137.19 1306.24,1131.08"/>
    </edge>
    <edge id=":1_5" function="internal">
        <lane id=":1_5_0" index="0" disallow="pedestrian tram rail_urban rail rail_electric rail_fast ship" speed="5.87" length="10.38" width="4.00" shape="1309.82,1129.29 1311.60,1131.98 1313.37,1132.88 1315.12,1131.98 1316.85,1129.29"/>
    </edge>
    <edge id=":1_6" function="internal">
        <lane id=":1_6_0" index="0" disallow="pedestrian tram rail_urban rail rail_electric rail_fast ship" speed="22.22" length="20.68" width="4.00" shape="1309.82,1129.29 1311.66,1133.54 1313.62,1138.90 1315.37,1144.33 1316.60,1148.80"/>
    </edge>
    <edge id=":10_0" function="internal">
        <lane id=":10_0_0" index="0" disallow="pedestrian tram rail_urban rail rail_electric rail_fast ship" speed="27.78" length="19.89" width="4.00" shape="2636.52,2097.35 2633.94,2093.64 2630.77,2089.22 2627.45,2084.93 2624.44,2081.58"/>
    </edge>
    <edge id=":10_1" function="internal">
        <lane id=":10_1_0" index="0" disallow="pedestrian tram rail_urban rail rail_electric rail_fast ship" speed="7.22" length="5.79" width="4.00" shape="2636.52,2097.35 2634.89,2092.58 2635.11,2091.87"/>
    </edge>
    <edge id=":10_8" function="internal">
        <lane id=":10_8_0" index="0" disallow="pedestrian tram rail_urban rail rail_electric rail_fast ship" speed="7.22" length="12.90" width="4.00" shape="2635.11,2091.87 2636.17,2088.47 2639.67,2085.97 2644.71,2086.03"/>
    </edge>
    <edge id=":10_2" function="internal">
        <lane id=":10_2_0" index="0" disallow="pedestrian tram rail_urban rail rail_electric rail_fast ship" speed="5.85" length="11.51" width="4.00" shape="2643.58,2089.86 2639.86,2089.16 2637.99,2089.79 2637.98,2091.77 2639.81,2095.07"/>
    </edge>
    <edge id=":10_3" function="internal">
        <lane id=":10_3_0" index="0" disallow="pedestrian tram rail_urban rail rail_electric rail_fast ship" speed="23.17" length="20.97" width="4.00" shape="2643.58,2089.86 2639.07,2088.46 2633.56,2086.49 2628.28,2084.14 2624.44,2081.58"/>
    </edge>
    <edge id=":10_4" function="internal">
        <lane id=":10_4_0" index="0" disallow="pedestrian tram rail_urban rail rail_electric rail_fast ship" speed="4.08" length="5.84" width="4.00" shape="2643.58,2089.86 2642.42,2088.48 2642.23,2087.38 2642.99,2086.56 2644.71,2086.03"/>
    </edge>
    <edge id=":10_5" function="internal">
        <lane id=":10_5_0" index="0" disallow="pedestrian tram rail_urban rail rail_electric rail_fast ship" speed="22.12" length="19.09" width="4.00" shape="2627.22,2078.70 2630.80,2081.11 2635.52,2083.13 2640.46,2084.77 2644.71,2086.03"/>
    </edge>
    <edge id=":10_6" function="internal">
        <lane id=":10_6_0" index="0" disallow="pedestrian tram rail_urban rail rail_electric rail_fast ship" speed="27.78" length="20.68" width="4.00" shape="2627.22,2078.70 2630.31,2082.14 2633.80,2086.64 2637.15,2091.27 2639.81,2095.07"/>
    </edge>
    <edge id=":10_7" function="internal">
        <lane id=":10_7_0" index="0" disallow="pedestrian tram rail_urban rail rail_electric rail_fast ship" speed="4.08" length="3.07" width="4.00" shape="2627.22,2078.70 2627.61,2080.46 2627.27,2081.52 2627.13,2081.57"/>
    </edge>
    <edge id=":10_9" function="internal">
        <lane id=":10_9_0" index="0" disallow="pedestrian tram rail_urban rail rail_electric rail_fast ship" speed="4.08" length="2.77" width="4.00" shape="2627.13,2081.57 2626.22,2081.90 2624.44,2081.58"/>
    </edge>
    <edge id=":11_0" function="internal">
        <lane id=":11_0_0" index="0" disallow="pedestrian tram rail_urban rail rail_electric rail_fast ship" speed="4.08" length="5.84" width="4.00" shape="3497.74,4196.93 3497.58,4198.72 3496.94,4199.64 3495.83,4199.68 3494.23,4198.84"/>
    </edge>
    <edge id=":12_0" function="internal">
        <lane id=":12_0_0" index="0" disallow="pedestrian tram rail_urban rail rail_electric rail_fast ship" speed="20.84" length="31.14" width="4.00" shape="1831.33,903.45 1825.85,906.34 1818.15,911.55 1810.61,917.06 1805.57,920.84"/>
    </edge>
    <edge id=":12_1" function="internal">
        <lane id=":12_1_0" index="0" disallow="pedestrian tram rail_urban rail rail_electric rail_fast ship" speed="27.78" length="35.97" width="4.00" shape="1831.33,903.45 1796.79,913.45"/>
    </edge>
    <edge id=":12_2" function="internal">
        <lane id=":12_2_0" index="0" disallow="pedestrian tram rail_urban rail rail_electric rail_fast ship" speed="4.08" length="2.92" width="4.00" shape="1831.33,903.45 1829.61,902.91 1828.85,902.09"/>
    </edge>
    <edge id=":12_7" function="internal">
        <lane id=":12_7_0" index="0" disallow="pedestrian tram rail_urban rail rail_electric rail_fast ship" speed="4.08" length="2.92" width="4.00" shape="1828.85,902.09 1829.05,900.99 1830.20,899.61"/>
    </edge>
    <edge id=":12_3" function="internal">
        <lane id=":12_3_0" index="0" disallow="pedestrian tram rail_urban rail rail_electric rail_fast ship" speed="27.78" length="35.82" width="4.00" shape="1795.80,909.58 1830.20,899.61"/>
    </edge>
    <edge id=":12_4" function="internal">
        <lane id=":12_4_0" index="0" disallow="pedestrian tram rail_urban rail rail_electric rail_fast ship" speed="7.12" length="6.09" width="4.00" shape="1795.80,909.58 1801.65,909.78 1801.85,909.90"/>
    </edge>
    <edge id=":12_8" function="internal">
        <lane id=":12_8_0" index="0" disallow="pedestrian tram rail_urban rail rail_electric rail_fast ship" speed="7.12" length="14.37" width="4.00" shape="1801.85,909.90 1806.18,912.58 1807.97,916.70 1805.57,920.84"/>
    </edge>
    <edge id=":12_5" function="internal">
        <lane id=":12_5_0" index="0" disallow="pedestrian tram rail_urban rail rail_electric rail_fast ship" speed="9.27" length="39.40" width="4.00" shape="1795.91,921.26 1809.73,914.43 1814.48,910.85 1810.17,910.52 1796.79,913.45"/>
    </edge>
    <edge id=":12_6" function="internal">
        <lane id=":12_6_0" index="0" disallow="pedestrian tram rail_urban rail rail_electric rail_fast ship" speed="20.84" length="40.58" width="4.00" shape="1795.91,921.26 1802.51,917.20 1812.96,910.18 1823.46,903.29 1830.20,899.61"/>
    </edge>
    <edge id=":13_0" function="internal">
        <lane id=":13_0_0" index="0" disallow="pedestrian tram rail_urban rail rail_electric rail_fast ship" speed="27.78" length="29.54" width="4.00" shape="2098.28,924.15 2070.11,915.25"/>
    </edge>
    <edge id=":13_1" function="internal">
        <lane id=":13_1_0" index="0" disallow="pedestrian tram rail_urban rail rail_electric rail_fast ship" speed="6.76" length="5.12" width="4.00" shape="2098.28,924.15 2094.54,921.20 2094.47,920.85"/>
    </edge>
    <edge id=":13_2" function="internal">
        <lane id=":13_2_0" index="0" disallow="pedestrian tram rail_urban rail rail_electric rail_fast ship" speed="4.08" length="2.92" width="4.00" shape="2098.28,924.15 2097.16,922.74 2097.00,921.64"/>
    </edge>
    <edge id=":13_8" function="internal">
        <lane id=":13_8_0" index="0" disallow="pedestrian tram rail_urban rail rail_electric rail_fast ship" speed="6.76" length="13.20" width="4.00" shape="2094.47,920.85 2093.71,916.89 2095.57,912.91 2099.93,910.97"/>
    </edge>
    <edge id=":13_9" function="internal">
        <lane id=":13_9_0" index="0" disallow="pedestrian tram rail_urban rail rail_electric rail_fast ship" speed="4.08" length="2.92" width="4.00" shape="2097.00,921.64 2097.78,920.84 2099.51,920.35"/>
    </edge>
    <edge id=":13_3" function="internal">
        <lane id=":13_3_0" index="0" disallow="pedestrian tram rail_urban rail rail_electric rail_fast ship" speed="6.29" length="15.48" width="4.00" shape="2100.19,914.96 2094.73,915.65 2092.79,916.78 2094.39,918.34 2099.51,920.35"/>
    </edge>
    <edge id=":13_4" function="internal">
        <lane id=":13_4_0" index="0" disallow="pedestrian tram rail_urban rail rail_electric rail_fast ship" speed="27.78" length="30.12" width="4.00" shape="2100.19,914.96 2094.06,915.33 2085.08,915.73 2076.14,915.82 2070.11,915.25"/>
    </edge>
    <edge id=":13_5" function="internal">
        <lane id=":13_5_0" index="0" disallow="pedestrian tram rail_urban rail rail_electric rail_fast ship" speed="27.78" length="28.79" width="4.00" shape="2071.18,911.40 2077.01,911.94 2085.49,911.81 2094.01,911.36 2099.93,910.97"/>
    </edge>
    <edge id=":13_6" function="internal">
        <lane id=":13_6_0" index="0" disallow="pedestrian tram rail_urban rail rail_electric rail_fast ship" speed="27.78" length="29.71" width="4.00" shape="2071.18,911.40 2099.51,920.35"/>
    </edge>
    <edge id=":13_7" function="internal">
        <lane id=":13_7_0" index="0" disallow="pedestrian tram rail_urban rail rail_electric rail_fast ship" speed="4.08" length="2.92" width="4.00" shape="2071.18,911.40 2072.36,912.76 2072.58,913.86"/>
    </edge>
    <edge id=":13_10" function="internal">
        <lane id=":13_10_0" index="0" disallow="pedestrian tram rail_urban rail rail_electric rail_fast ship" speed="4.08" length="2.92" width="4.00" shape="2072.58,913.86 2071.83,914.69 2070.11,915.25"/>
    </edge>
    <edge id=":14_0" function="internal">
        <lane id=":14_0_0" index="0" disallow="pedestrian tram rail_urban rail rail_electric rail_fast ship" speed="27.78" length="16.59" width="4.00" shape="657.41,448.04 641.23,444.36"/>
    </edge>
    <edge id=":14_1" function="internal">
        <lane id=":14_1_0" index="0" disallow="pedestrian tram rail_urban rail rail_electric rail_fast ship" speed="8.11" length="7.52" width="4.00" shape="657.41,448.04 652.41,446.15 650.96,444.52"/>
    </edge>
    <edge id=":14_6" function="internal">
        <lane id=":14_6_0" index="0" disallow="pedestrian tram rail_urban rail rail_electric rail_fast ship" speed="8.11" length="10.84" width="4.00" shape="650.96,444.52 649.86,443.28 649.75,439.45 652.08,434.64"/>
    </edge>
    <edge id=":14_2" function="internal">
        <lane id=":14_2_0" index="0" disallow="pedestrian tram rail_urban rail rail_electric rail_fast ship" speed="6.18" length="9.96" width="4.00" shape="655.40,436.87 654.13,439.48 654.20,441.56 655.58,443.11 658.29,444.14"/>
    </edge>
    <edge id=":14_3" function="internal">
        <lane id=":14_3_0" index="0" disallow="pedestrian tram rail_urban rail rail_electric rail_fast ship" speed="10.25" length="17.09" width="4.00" shape="655.40,436.87 652.17,440.83 648.74,443.39 645.09,444.57 641.23,444.36"/>
    </edge>
    <edge id=":14_4" function="internal">
        <lane id=":14_4_0" index="0" disallow="pedestrian tram rail_urban rail rail_electric rail_fast ship" speed="8.77" length="12.25" width="4.00" shape="642.13,440.46 644.72,440.54 647.24,439.60 649.69,437.64 652.08,434.64"/>
    </edge>
    <edge id=":14_5" function="internal">
        <lane id=":14_5_0" index="0" disallow="pedestrian tram rail_urban rail rail_electric rail_fast ship" speed="27.78" length="16.58" width="4.00" shape="642.13,440.46 658.29,444.14"/>
    </edge>
    <edge id=":15_0" function="internal">
        <lane id=":15_0_0" index="0" disallow="pedestrian tram rail_urban rail rail_electric rail_fast ship" speed="4.08" length="5.84" width="4.00" shape="433.75,389.21 433.22,387.48 433.46,386.39 434.47,385.93 436.27,386.10"/>
    </edge>
    <edge id=":16_0" function="internal">
        <lane id=":16_0_0" index="0" disallow="pedestrian tram rail_urban rail rail_electric rail_fast ship" speed="13.89" length="16.21" width="4.00" shape="768.40,412.41 765.25,428.31"/>
    </edge>
    <edge id=":16_1" function="internal">
        <lane id=":16_1_0" index="0" disallow="pedestrian tram rail_urban rail rail_electric rail_fast ship" speed="8.45" length="7.32" width="4.00" shape="768.40,412.41 766.96,416.73 765.10,418.78"/>
    </edge>
    <edge id=":16_6" function="internal">
        <lane id=":16_6_0" index="0" disallow="pedestrian tram rail_urban rail rail_electric rail_fast ship" speed="8.45" length="9.16" width="4.00" shape="765.10,418.78 764.48,419.46 760.98,420.58 756.45,420.12"/>
    </edge>
    <edge id=":16_2" function="internal">
        <lane id=":16_2_0" index="0" disallow="pedestrian tram rail_urban rail rail_electric rail_fast ship" speed="6.66" length="9.71" width="4.00" shape="757.42,416.24 760.09,416.51 762.16,415.85 763.62,414.24 764.47,411.69"/>
    </edge>
    <edge id=":16_3" function="internal">
        <lane id=":16_3_0" index="0" disallow="pedestrian tram rail_urban rail rail_electric rail_fast ship" speed="8.70" length="16.29" width="4.00" shape="757.42,416.24 761.62,417.92 764.33,420.50 765.54,423.96 765.25,428.31"/>
    </edge>
    <edge id=":16_4" function="internal">
        <lane id=":16_4_0" index="0" disallow="pedestrian tram rail_urban rail rail_electric rail_fast ship" speed="6.97" length="9.99" width="4.00" shape="761.34,427.46 761.50,424.83 760.74,422.72 759.06,421.15 756.45,420.12"/>
    </edge>
    <edge id=":16_5" function="internal">
        <lane id=":16_5_0" index="0" disallow="pedestrian tram rail_urban rail rail_electric rail_fast ship" speed="13.89" length="16.08" width="4.00" shape="761.34,427.46 764.47,411.69"/>
    </edge>
    <edge id=":17_0" function="internal">
        <lane id=":17_0_0" index="0" disallow="pedestrian tram rail_urban rail rail_electric rail_fast ship" speed="4.08" length="5.84" width="4.00" shape="830.46,0.56 832.20,0.09 833.28,0.38 833.70,1.42 833.46,3.20"/>
    </edge>
    <edge id=":18_0" function="internal">
        <lane id=":18_0_0" index="0" disallow="pedestrian tram rail_urban rail rail_electric rail_fast ship" speed="4.08" length="5.84" width="4.00" shape="3443.56,-1.98 3445.20,-1.22 3445.85,-0.31 3445.51,0.76 3444.18,1.98"/>
    </edge>
    <edge id=":19_0" function="internal">
        <lane id=":19_0_0" index="0" disallow="pedestrian tram rail_urban rail rail_electric rail_fast ship" speed="27.78" length="20.00" width="4.00" shape="2380.21,840.35 2362.85,850.27"/>
    </edge>
    <edge id=":19_1" function="internal">
        <lane id=":19_1_0" index="0" disallow="pedestrian tram rail_urban rail rail_electric rail_fast ship" speed="8.16" length="9.76" width="4.00" shape="2380.21,840.35 2373.12,843.46 2371.12,843.24"/>
    </edge>
    <edge id=":19_2" function="internal">
        <lane id=":19_2_0" index="0" disallow="pedestrian tram rail_urban rail rail_electric rail_fast ship" speed="4.08" length="2.92" width="4.00" shape="2380.21,840.35 2378.41,840.23 2377.48,839.61"/>
    </edge>
    <edge id=":19_7" function="internal">
        <lane id=":19_7_0" index="0" disallow="pedestrian tram rail_urban rail rail_electric rail_fast ship" speed="8.16" length="14.14" width="4.00" shape="2371.12,843.24 2368.94,843.01 2367.68,839.00 2369.33,831.43"/>
    </edge>
    <edge id=":19_8" function="internal">
        <lane id=":19_8_0" index="0" disallow="pedestrian tram rail_urban rail rail_electric rail_fast ship" speed="4.08" length="2.92" width="4.00" shape="2377.48,839.61 2377.42,838.49 2378.23,836.88"/>
    </edge>
    <edge id=":19_3" function="internal">
        <lane id=":19_3_0" index="0" disallow="pedestrian tram rail_urban rail rail_electric rail_fast ship" speed="5.84" length="11.20" width="4.00" shape="2373.13,832.70 2372.35,836.24 2372.94,838.12 2374.90,838.33 2378.23,836.88"/>
    </edge>
    <edge id=":19_4" function="internal">
        <lane id=":19_4_0" index="0" disallow="pedestrian tram rail_urban rail rail_electric rail_fast ship" speed="15.74" length="20.62" width="4.00" shape="2373.13,832.70 2371.47,837.10 2369.03,842.33 2366.07,847.15 2362.85,850.27"/>
    </edge>
    <edge id=":19_5" function="internal">
        <lane id=":19_5_0" index="0" disallow="pedestrian tram rail_urban rail rail_electric rail_fast ship" speed="14.67" length="17.84" width="4.00" shape="2360.87,846.80 2363.80,844.02 2366.14,839.97 2367.96,835.49 2369.33,831.43"/>
    </edge>
    <edge id=":19_6" function="internal">
        <lane id=":19_6_0" index="0" disallow="pedestrian tram rail_urban rail rail_electric rail_fast ship" speed="27.78" length="20.00" width="4.00" shape="2360.87,846.80 2378.23,836.88"/>
    </edge>
    <edge id=":2_0" function="internal">
        <lane id=":2_0_0" index="0" disallow="pedestrian tram rail_urban rail rail_electric rail_fast ship" speed="5.91" length="11.50" width="4.00" shape="1382.58,779.11 1380.47,775.90 1378.65,774.89 1377.10,776.08 1375.82,779.46"/>
    </edge>
    <edge id=":2_1" function="internal">
        <lane id=":2_1_0" index="0" disallow="pedestrian tram rail_urban rail rail_electric rail_fast ship" speed="27.78" length="21.01" width="4.00" shape="1382.58,779.11 1380.49,774.91 1378.02,769.65 1375.63,764.35 1373.79,760.04"/>
    </edge>
    <edge id=":2_2" function="internal">
        <lane id=":2_2_0" index="0" disallow="pedestrian tram rail_urban rail rail_electric rail_fast ship" speed="27.78" length="20.61" width="4.00" shape="1377.50,758.55 1379.31,762.81 1381.65,767.99 1384.07,773.12 1386.13,777.27"/>
    </edge>
    <edge id=":2_3" function="internal">
        <lane id=":2_3_0" index="0" disallow="pedestrian tram rail_urban rail rail_electric rail_fast ship" speed="17.95" length="6.44" width="4.00" shape="1377.50,758.55 1378.20,763.09 1378.08,764.93"/>
    </edge>
    <edge id=":2_6" function="internal">
        <lane id=":2_6_0" index="0" disallow="pedestrian tram rail_urban rail rail_electric rail_fast ship" speed="17.95" length="14.73" width="4.00" shape="1378.08,764.93 1377.82,768.93 1376.86,774.80 1375.82,779.46"/>
    </edge>
    <edge id=":2_4" function="internal">
        <lane id=":2_4_0" index="0" disallow="pedestrian tram rail_urban rail rail_electric rail_fast ship" speed="16.91" length="18.75" width="4.00" shape="1371.94,778.48 1373.01,774.21 1374.03,769.18 1374.46,764.20 1373.79,760.04"/>
    </edge>
    <edge id=":2_5" function="internal">
        <lane id=":2_5_0" index="0" disallow="pedestrian tram rail_urban rail rail_electric rail_fast ship" speed="7.34" length="18.93" width="4.00" shape="1371.94,778.48 1374.47,774.07 1378.40,772.37 1382.64,773.42 1386.13,777.27"/>
    </edge>
    <edge id=":20_0" function="internal">
        <lane id=":20_0_0" index="0" disallow="pedestrian tram rail_urban rail rail_electric rail_fast ship" speed="4.08" length="5.84" width="4.00" shape="4575.94,3062.61 4577.23,3063.87 4577.53,3064.95 4576.86,3065.84 4575.20,3066.54"/>
    </edge>
    <edge id=":21_0" function="internal">
        <lane id=":21_0_0" index="0" disallow="pedestrian tram rail_urban rail rail_electric rail_fast ship" speed="4.08" length="5.84" width="4.00" shape="380.61,398.99 381.29,397.32 382.17,396.63 383.25,396.91 384.53,398.18"/>
    </edge>
    <edge id=":22_0" function="internal">
        <lane id=":22_0_0" index="0" disallow="pedestrian tram rail_urban rail rail_electric rail_fast ship" speed="4.08" length="5.84" width="4.00" shape="1540.78,3029.55 1540.58,3031.34 1539.92,3032.24 1538.80,3032.25 1537.23,3031.38"/>
    </edge>
    <edge id=":23_0" function="internal">
        <lane id=":23_0_0" index="0" disallow="pedestrian tram rail_urban rail rail_electric rail_fast ship" speed="4.08" length="5.84" width="4.00" shape="4657.79,501.88 4659.35,502.78 4659.92,503.74 4659.49,504.77 4658.06,505.87"/>
    </edge>
    <edge id=":24_0" function="internal">
        <lane id=":24_0_0" index="0" disallow="pedestrian tram rail_urban rail rail_electric rail_fast ship" speed="13.89" length="15.36" width="4.00" shape="1162.34,617.16 1158.80,617.25 1155.31,618.89 1151.79,620.97 1148.18,622.36"/>
    </edge>
    <edge id=":24_1" function="internal">
        <lane id=":24_1_0" index="0" disallow="pedestrian tram rail_urban rail rail_electric rail_fast ship" speed="9.63" length="10.95" width="4.00" shape="1155.31,606.64 1156.43,608.84 1158.17,610.69 1160.51,612.18 1163.47,613.32"/>
    </edge>
    <edge id=":24_2" function="internal">
        <lane id=":24_2_0" index="0" disallow="pedestrian tram rail_urban rail rail_electric rail_fast ship" speed="9.07" length="9.89" width="4.00" shape="1155.31,606.64 1156.62,612.72 1156.03,616.34"/>
    </edge>
    <edge id=":24_3" function="internal">
        <lane id=":24_3_0" index="0" disallow="pedestrian tram rail_urban rail rail_electric rail_fast ship" speed="9.07" length="10.49" width="4.00" shape="1156.03,616.34 1155.87,617.36 1153.05,620.57 1148.18,622.36"/>
    </edge>
    <edge id=":25_0" function="internal">
        <lane id=":25_0_0" index="0" disallow="pedestrian tram rail_urban rail rail_electric rail_fast ship" speed="4.08" length="5.84" width="4.00" shape="909.82,449.88 911.09,451.16 911.38,452.23 910.69,453.11 909.02,453.79"/>
    </edge>
    <edge id=":26_0" function="internal">
        <lane id=":26_0_0" index="0" disallow="pedestrian tram rail_urban rail rail_electric rail_fast ship" speed="4.08" length="5.84" width="4.00" shape="874.69,347.93 875.85,346.55 876.91,346.17 877.84,346.78 878.66,348.39"/>
    </edge>
    <edge id=":27_0" function="internal">
        <lane id=":27_0_0" index="0" disallow="pedestrian tram rail_urban rail rail_electric rail_fast ship" speed="13.89" length="0.72" width="4.00" shape="1147.98,622.40 1147.54,621.83"/>
    </edge>
    <edge id=":3_0" function="internal">
        <lane id=":3_0_0" index="0" disallow="pedestrian tram rail_urban rail rail_electric rail_fast ship" speed="10.19" length="11.50" width="4.00" shape="749.85,1829.62 747.96,1832.80 746.80,1835.64 746.36,1838.15 746.65,1840.32"/>
    </edge>
    <edge id=":3_1" function="internal">
        <lane id=":3_1_0" index="0" disallow="pedestrian tram rail_urban rail rail_electric rail_fast ship" speed="9.50" length="5.43" width="4.00" shape="749.85,1829.62 747.43,1832.19 745.72,1833.03"/>
    </edge>
    <edge id=":3_2" function="internal">
        <lane id=":3_2_0" index="0" disallow="pedestrian tram rail_urban rail rail_electric rail_fast ship" speed="4.08" length="2.77" width="4.00" shape="749.85,1829.62 748.18,1830.31 747.22,1830.18"/>
    </edge>
    <edge id=":3_8" function="internal">
        <lane id=":3_8_0" index="0" disallow="pedestrian tram rail_urban rail rail_electric rail_fast ship" speed="9.50" length="9.58" width="4.00" shape="745.72,1833.03 744.39,1833.68 740.70,1834.09 736.37,1833.41"/>
    </edge>
    <edge id=":3_9" function="internal">
        <lane id=":3_9_0" index="0" disallow="pedestrian tram rail_urban rail rail_electric rail_fast ship" speed="4.08" length="3.07" width="4.00" shape="747.22,1830.18 747.07,1830.16 746.52,1829.19 746.52,1827.39"/>
    </edge>
    <edge id=":3_3" function="internal">
        <lane id=":3_3_0" index="0" disallow="pedestrian tram rail_urban rail rail_electric rail_fast ship" speed="7.89" length="10.04" width="4.00" shape="737.39,1829.54 740.41,1830.05 742.94,1829.86 744.98,1828.97 746.52,1827.39"/>
    </edge>
    <edge id=":3_4" function="internal">
        <lane id=":3_4_0" index="0" disallow="pedestrian tram rail_urban rail rail_electric rail_fast ship" speed="10.76" length="14.81" width="4.00" shape="737.39,1829.54 740.33,1830.84 742.85,1833.06 744.96,1836.22 746.65,1840.32"/>
    </edge>
    <edge id=":3_5" function="internal">
        <lane id=":3_5_0" index="0" disallow="pedestrian tram rail_urban rail rail_electric rail_fast ship" speed="9.28" length="10.82" width="4.00" shape="742.85,1841.55 741.58,1838.40 740.08,1836.00 738.35,1834.33 736.37,1833.41"/>
    </edge>
    <edge id=":3_6" function="internal">
        <lane id=":3_6_0" index="0" disallow="pedestrian tram rail_urban rail rail_electric rail_fast ship" speed="11.61" length="15.11" width="4.00" shape="742.85,1841.55 742.36,1838.47 742.82,1835.09 744.20,1831.39 746.52,1827.39"/>
    </edge>
    <edge id=":3_7" function="internal">
        <lane id=":3_7_0" index="0" disallow="pedestrian tram rail_urban rail rail_electric rail_fast ship" speed="4.08" length="3.26" width="4.00" shape="742.85,1841.55 743.34,1839.82 744.13,1839.03 744.47,1839.09"/>
    </edge>
    <edge id=":3_10" function="internal">
        <lane id=":3_10_0" index="0" disallow="pedestrian tram rail_urban rail rail_electric rail_fast ship" speed="4.08" length="2.58" width="4.00" shape="744.47,1839.09 745.24,1839.20 746.65,1840.32"/>
    </edge>
    <edge id=":4_0" function="internal">