<?xml version="1.0" encoding="UTF-8"?>

<!-- generated on 2022-01-12 17:14:46 by Eclipse SUMO netedit Version 1.11.0
<configuration xmlns:xsi="http://www.w3.org/2001/XMLSchema-instance" xsi:noNamespaceSchemaLocation="http://sumo.dlr.de/xsd/netconvertConfiguration.xsd">

    <input>
        <sumo-net-file value="D:\script_carla\map_net_xml\town_04_perif_simu.net.xml"/>
    </input>

    <output>
        <output-file value="D:\script_carla\map_net_xml\town_04_perif_simu.net.xml"/>
    </output>

    <processing>
        <geometry.min-radius.fix.railways value="false"/>
        <geometry.max-grade.fix value="false"/>
        <offset.disable-normalization value="true"/>
        <lefthand value="false"/>
    </processing>

    <junctions>
        <no-turnarounds value="true"/>
        <junctions.corner-detail value="5"/>
        <junctions.limit-turn-speed value="5.5"/>
        <rectangular-lane-cut value="true"/>
    </junctions>

    <pedestrian>
        <walkingareas value="false"/>
    </pedestrian>

    <report>
        <aggregate-warnings value="5"/>
    </report>

</configuration>
-->

<net version="1.9" junctionCornerDetail="5" rectangularLaneCut="true" limitTurnSpeed="5.50" xmlns:xsi="http://www.w3.org/2001/XMLSchema-instance" xsi:noNamespaceSchemaLocation="http://sumo.dlr.de/xsd/net_file.xsd">

    <location netOffset="503.02,423.76" convBoundary="0.00,0.00,899.28,800.65" origBoundary="-499.52,-420.26,409.23,380.40" projParameter="!"/>

    <type id="bidirectional" priority="1" speed="1.39" disallow="pedestrian tram rail_urban rail rail_electric rail_fast ship" width="3.65"/>
    <type id="biking" priority="-1" speed="5.56" allow="bicycle" width="1.50"/>
    <type id="border" priority="0" speed="1.39" disallow="all" discard="1" width="0.10"/>
    <type id="driving" priority="1" speed="13.89" disallow="pedestrian tram rail_urban rail rail_electric rail_fast ship" width="3.65"/>
    <type id="entry" priority="1" speed="22.22" disallow="pedestrian tram rail_urban rail rail_electric rail_fast ship" width="3.65"/>
    <type id="exit" priority="1" speed="22.22" disallow="pedestrian tram rail_urban rail rail_electric rail_fast ship" width="3.65"/>
    <type id="median" priority="0" speed="1.39" disallow="all" discard="1" width="0.10"/>
    <type id="mwyEntry" priority="1" speed="22.22" allow="private emergency authority army vip passenger hov taxi bus coach delivery truck trailer motorcycle evehicle custom1 custom2" width="3.65"/>
    <type id="mwyExit" priority="1" speed="22.22" allow="private emergency authority army vip passenger hov taxi bus coach delivery truck trailer motorcycle evehicle custom1 custom2" width="3.65"/>
    <type id="none" priority="0" speed="1.39" disallow="all" discard="1" width="1.00"/>
    <type id="offRamp" priority="1" speed="22.22" allow="private emergency authority army vip passenger hov taxi bus coach delivery truck trailer motorcycle evehicle custom1 custom2" width="3.65"/>
    <type id="onRamp" priority="1" speed="22.22" allow="private emergency authority army vip passenger hov taxi bus coach delivery truck trailer motorcycle evehicle custom1 custom2" width="3.65"/>
    <type id="parking" priority="1" speed="1.39" disallow="pedestrian tram rail_urban rail rail_electric rail_fast ship" width="2.50"/>
    <type id="rail" priority="3" speed="33.33" allow="rail_urban rail rail_electric rail_fast" width="3.65"/>
    <type id="restricted" priority="0" speed="13.89" disallow="all" width="3.65"/>
    <type id="roadWorks" priority="0" speed="1.39" allow="authority" width="3.65"/>
    <type id="shoulder" priority="0" speed="1.39" disallow="all" discard="1" width="1.00"/>
    <type id="sidewalk" priority="-2" speed="2.78" allow="pedestrian" width="2.50"/>
    <type id="special1" priority="1" speed="22.22" allow="custom1" discard="1" width="3.65"/>
    <type id="special2" priority="1" speed="22.22" allow="custom2" discard="1" width="3.65"/>
    <type id="special3" priority="1" speed="22.22" allow="custom1 custom2" discard="1" width="3.65"/>
    <type id="stop" priority="1" speed="13.89" disallow="pedestrian tram rail_urban rail rail_electric rail_fast ship" width="3.65"/>
    <type id="tram" priority="2" speed="13.89" allow="tram" width="3.65"/>

    <edge id=":1012_0" function="internal">
        <lane id=":1012_0_0" index="0" disallow="pedestrian tram rail_urban rail rail_electric rail_fast ship" speed="13.89" length="26.00" width="3.50" shape="883.07,444.55 881.81,437.98 880.26,433.57 877.59,429.73 872.99,424.86"/>
        <lane id=":1012_0_1" index="1" disallow="pedestrian tram rail_urban rail rail_electric rail_fast ship" speed="13.89" length="26.00" width="3.50" shape="886.52,443.98 885.15,436.78 883.44,431.94 880.52,427.73 875.49,422.40"/>
        <lane id=":1012_0_2" index="2" disallow="pedestrian tram rail_urban rail rail_electric rail_fast ship" speed="13.89" length="26.00" width="3.50" shape="889.97,443.40 888.48,435.57 886.63,430.32 883.45,425.74 877.98,419.94"/>
        <lane id=":1012_0_3" index="3" disallow="pedestrian tram rail_urban rail rail_electric rail_fast ship" speed="13.89" length="26.00" width="3.50" shape="893.43,442.83 891.82,434.37 889.82,428.69 886.38,423.75 880.47,417.49"/>
    </edge>
    <edge id=":1012_4" function="internal">
        <lane id=":1012_4_0" index="0" disallow="pedestrian tram rail_urban rail rail_electric rail_fast ship" speed="13.89" length="42.11" width="3.50" shape="907.10,397.85 914.14,439.37"/>
        <lane id=":1012_4_1" index="1" disallow="pedestrian tram rail_urban rail rail_electric rail_fast ship" speed="13.89" length="42.11" width="3.50" shape="903.65,398.43 910.69,439.95"/>
    </edge>
    <edge id=":1012_6" function="internal">
        <lane id=":1012_6_0" index="0" disallow="pedestrian tram rail_urban rail rail_electric rail_fast ship" speed="13.89" length="39.03" width="3.50" shape="895.43,402.75 903.97,411.79 908.94,418.94 911.83,427.15 914.14,439.37"/>
        <lane id=":1012_6_1" index="1" disallow="pedestrian tram rail_urban rail rail_electric rail_fast ship" speed="13.89" length="39.03" width="3.50" shape="892.94,405.20 901.04,413.79 905.75,420.57 908.50,428.35 910.69,439.95"/>
        <lane id=":1012_6_2" index="2" disallow="pedestrian tram rail_urban rail rail_electric rail_fast ship" speed="13.89" length="39.03" width="3.50" shape="890.44,407.66 898.11,415.78 902.57,422.19 905.16,429.56 907.24,440.52"/>
        <lane id=":1012_6_3" index="3" disallow="pedestrian tram rail_urban rail rail_electric rail_fast ship" speed="13.89" length="39.03" width="3.50" shape="887.95,410.12 895.18,417.77 899.38,423.82 901.83,430.76 903.78,441.10"/>
    </edge>
    <edge id=":252_0" function="internal">
        <lane id=":252_0_0" index="0" disallow="pedestrian tram rail_urban rail rail_electric rail_fast ship" speed="13.89" length="14.95" width="3.50" shape="715.86,819.48 700.90,819.59"/>
        <lane id=":252_0_1" index="1" disallow="pedestrian tram rail_urban rail rail_electric rail_fast ship" speed="13.89" length="14.95" width="3.50" shape="715.82,815.98 700.87,816.09"/>
        <lane id=":252_0_2" index="2" disallow="pedestrian tram rail_urban rail rail_electric rail_fast ship" speed="13.89" length="14.95" width="3.50" shape="715.78,812.48 700.83,812.59"/>
        <lane id=":252_0_3" index="3" disallow="pedestrian tram rail_urban rail rail_electric rail_fast ship" speed="13.89" length="14.95" width="3.50" shape="715.75,808.98 700.80,809.09"/>
    </edge>
    <edge id=":252_4" function="internal">
        <lane id=":252_4_0" index="0" disallow="pedestrian tram rail_urban rail rail_electric rail_fast ship" speed="13.89" length="14.95" width="3.50" shape="700.59,788.09 715.54,787.98"/>
        <lane id=":252_4_1" index="1" disallow="pedestrian tram rail_urban rail rail_electric rail_fast ship" speed="13.89" length="14.95" width="3.50" shape="700.62,791.59 715.57,791.48"/>
        <lane id=":252_4_2" index="2" disallow="pedestrian tram rail_urban rail rail_electric rail_fast ship" speed="13.89" length="14.95" width="3.50" shape="700.66,795.09 715.61,794.98"/>
        <lane id=":252_4_3" index="3" disallow="pedestrian tram rail_urban rail rail_electric rail_fast ship" speed="13.89" length="14.95" width="3.50" shape="700.69,798.59 715.64,798.48"/>
    </edge>
    <edge id=":519_0" function="internal">
        <lane id=":519_0_0" index="0" disallow="pedestrian tram rail_urban rail rail_electric rail_fast ship" speed="13.89" length="13.91" width="3.50" shape="884.03,497.35 883.93,483.43"/>
        <lane id=":519_0_1" index="1" disallow="pedestrian tram rail_urban rail rail_electric rail_fast ship" speed="13.89" length="13.91" width="3.50" shape="887.53,497.32 887.43,483.41"/>
        <lane id=":519_0_2" index="2" disallow="pedestrian tram rail_urban rail rail_electric rail_fast ship" speed="13.89" length="13.91" width="3.50" shape="891.03,497.29 890.93,483.38"/>
        <lane id=":519_0_3" index="3" disallow="pedestrian tram rail_urban rail rail_electric rail_fast ship" speed="13.89" length="13.91" width="3.50" shape="894.53,497.26 894.43,483.35"/>
    </edge>
    <edge id=":519_4" function="internal">
        <lane id=":519_4_0" index="0" disallow="pedestrian tram rail_urban rail rail_electric rail_fast ship" speed="13.89" length="13.91" width="3.50" shape="915.43,483.19 915.53,497.10"/>
        <lane id=":519_4_1" index="1" disallow="pedestrian tram rail_urban rail rail_electric rail_fast ship" speed="13.89" length="13.91" width="3.50" shape="911.93,483.22 912.03,497.13"/>
        <lane id=":519_4_2" index="2" disallow="pedestrian tram rail_urban rail rail_electric rail_fast ship" speed="13.89" length="13.91" width="3.50" shape="908.43,483.25 908.53,497.15"/>
        <lane id=":519_4_3" index="3" disallow="pedestrian tram rail_urban rail rail_electric rail_fast ship" speed="13.89" length="13.91" width="3.50" shape="904.93,483.27 905.03,497.18"/>
    </edge>
    <edge id=":548_0" function="internal">
        <lane id=":548_0_0" index="0" disallow="pedestrian tram rail_urban rail rail_electric rail_fast ship" speed="13.89" length="34.24" width="3.50" shape="486.63,507.05 486.76,472.77"/>
        <lane id=":548_0_1" index="1" disallow="pedestrian tram rail_urban rail rail_electric rail_fast ship" speed="13.89" length="34.24" width="3.50" shape="490.13,507.05 490.26,472.80"/>
        <lane id=":548_0_2" index="2" disallow="pedestrian tram rail_urban rail rail_electric rail_fast ship" speed="13.89" length="34.24" width="3.50" shape="493.63,507.05 493.76,472.84"/>
        <lane id=":548_0_3" index="3" disallow="pedestrian tram rail_urban rail rail_electric rail_fast ship" speed="13.89" length="34.24" width="3.50" shape="497.13,507.05 497.26,472.87"/>
    </edge>
    <edge id=":548_4" function="internal">
        <lane id=":548_4_0" index="0" disallow="pedestrian tram rail_urban rail rail_electric rail_fast ship" speed="13.89" length="34.02" width="3.50" shape="518.26,473.08 518.13,507.05"/>
        <lane id=":548_4_1" index="1" disallow="pedestrian tram rail_urban rail rail_electric rail_fast ship" speed="13.89" length="34.02" width="3.50" shape="514.76,473.05 514.63,507.05"/>
        <lane id=":548_4_2" index="2" disallow="pedestrian tram rail_urban rail rail_electric rail_fast ship" speed="13.89" length="34.02" width="3.50" shape="511.26,473.01 511.13,507.05"/>
        <lane id=":548_4_3" index="3" disallow="pedestrian tram rail_urban rail rail_electric rail_fast ship" speed="13.89" length="34.02" width="3.50" shape="507.76,472.98 507.63,507.05"/>
    </edge>
    <edge id=":609_0" function="internal">
        <lane id=":609_0_0" index="0" disallow="pedestrian tram rail_urban rail rail_electric rail_fast ship" speed="13.89" length="14.88" width="3.50" shape="885.10,601.45 884.94,586.57"/>
        <lane id=":609_0_1" index="1" disallow="pedestrian tram rail_urban rail rail_electric rail_fast ship" speed="13.89" length="14.88" width="3.50" shape="888.60,601.41 888.44,586.53"/>
        <lane id=":609_0_2" index="2" disallow="pedestrian tram rail_urban rail rail_electric rail_fast ship" speed="13.89" length="14.88" width="3.50" shape="892.10,601.37 891.94,586.49"/>
        <lane id=":609_0_3" index="3" disallow="pedestrian tram rail_urban rail rail_electric rail_fast ship" speed="13.89" length="14.88" width="3.50" shape="895.60,601.34 895.44,586.46"/>
    </edge>
    <edge id=":609_4" function="internal">
        <lane id=":609_4_0" index="0" disallow="pedestrian tram rail_urban rail rail_electric rail_fast ship" speed="13.89" length="14.88" width="3.50" shape="916.44,586.24 916.60,601.12"/>
        <lane id=":609_4_1" index="1" disallow="pedestrian tram rail_urban rail rail_electric rail_fast ship" speed="13.89" length="14.88" width="3.50" shape="912.94,586.28 913.10,601.16"/>
        <lane id=":609_4_2" index="2" disallow="pedestrian tram rail_urban rail rail_electric rail_fast ship" speed="13.89" length="14.88" width="3.50" shape="909.44,586.31 909.60,601.19"/>
        <lane id=":609_4_3" index="3" disallow="pedestrian tram rail_urban rail rail_electric rail_fast ship" speed="13.89" length="14.88" width="3.50" shape="905.94,586.35 906.10,601.23"/>
    </edge>
    <edge id=":648_0" function="internal">
        <lane id=":648_0_0" index="0" disallow="pedestrian tram rail_urban rail rail_electric rail_fast ship" speed="13.89" length="58.16" width="3.50" shape="519.07,297.63 518.78,355.80"/>
        <lane id=":648_0_1" index="1" disallow="pedestrian tram rail_urban rail rail_electric rail_fast ship" speed="13.89" length="58.16" width="3.50" shape="515.57,297.60 515.28,355.76"/>
        <lane id=":648_0_2" index="2" disallow="pedestrian tram rail_urban rail rail_electric rail_fast ship" speed="13.89" length="58.16" width="3.50" shape="512.07,297.56 511.78,355.73"/>
        <lane id=":648_0_3" index="3" disallow="pedestrian tram rail_urban rail rail_electric rail_fast ship" speed="13.89" length="58.16" width="3.50" shape="508.57,297.53 508.28,355.69"/>
    </edge>
    <edge id=":648_4" function="internal">
        <lane id=":648_4_0" index="0" disallow="pedestrian tram rail_urban rail rail_electric rail_fast ship" speed="13.89" length="58.16" width="3.50" shape="487.28,355.48 487.57,297.32"/>
        <lane id=":648_4_1" index="1" disallow="pedestrian tram rail_urban rail rail_electric rail_fast ship" speed="13.89" length="58.16" width="3.50" shape="490.78,355.51 491.07,297.35"/>
        <lane id=":648_4_2" index="2" disallow="pedestrian tram rail_urban rail rail_electric rail_fast ship" speed="13.89" length="58.16" width="3.50" shape="494.28,355.55 494.57,297.39"/>
        <lane id=":648_4_3" index="3" disallow="pedestrian tram rail_urban rail rail_electric rail_fast ship" speed="13.89" length="58.16" width="3.50" shape="497.78,355.58 498.07,297.42"/>
    </edge>
    <edge id=":669_0" function="internal">
        <lane id=":669_0_0" index="0" disallow="pedestrian tram rail_urban rail rail_electric rail_fast ship" speed="13.89" length="43.14" width="3.50" shape="614.57,417.05,10.46 571.33,417.40,10.98"/>
        <lane id=":669_0_1" index="1" disallow="pedestrian tram rail_urban rail rail_electric rail_fast ship" speed="13.89" length="43.14" width="3.50" shape="614.50,413.55,10.46 571.33,413.90,10.98"/>
        <lane id=":669_0_2" index="2" disallow="pedestrian tram rail_urban rail rail_electric rail_fast ship" speed="13.89" length="43.14" width="3.50" shape="614.43,410.05,10.46 571.33,410.40,10.98"/>
        <lane id=":669_0_3" index="3" disallow="pedestrian tram rail_urban rail rail_electric rail_fast ship" speed="13.89" length="43.14" width="3.50" shape="614.36,406.55,10.46 571.33,406.90,10.98"/>
    </edge>
    <edge id=":669_4" function="internal">
        <lane id=":669_4_0" index="0" disallow="pedestrian tram rail_urban rail rail_electric rail_fast ship" speed="13.89" length="42.71" width="3.50" shape="571.33,385.90,10.98 613.93,385.55,10.46"/>
        <lane id=":669_4_1" index="1" disallow="pedestrian tram rail_urban rail rail_electric rail_fast ship" speed="13.89" length="42.71" width="3.50" shape="571.33,389.40,10.98 614.00,389.05,10.46"/>
        <lane id=":669_4_2" index="2" disallow="pedestrian tram rail_urban rail rail_electric rail_fast ship" speed="13.89" length="42.71" width="3.50" shape="571.33,392.90,10.98 614.07,392.55,10.46"/>
        <lane id=":669_4_3" index="3" disallow="pedestrian tram rail_urban rail rail_electric rail_fast ship" speed="13.89" length="42.71" width="3.50" shape="571.33,396.40,10.98 614.14,396.05,10.46"/>
    </edge>
    <edge id=":703_0" function="internal">
        <lane id=":703_0_0" index="0" disallow="pedestrian tram rail_urban rail rail_electric rail_fast ship" speed="13.89" length="58.51" width="3.50" shape="504.37,722.02 495.89,705.40 489.04,693.13 482.51,682.68 475.01,671.47"/>
    </edge>
    <edge id=":703_1" function="internal">
        <lane id=":703_1_0" index="0" disallow="pedestrian tram rail_urban rail rail_electric rail_fast ship" speed="13.89" length="59.36" width="3.50" shape="507.51,720.47 499.36,704.82 493.89,693.90 490.20,682.45 487.39,665.21"/>
        <lane id=":703_1_1" index="1" disallow="pedestrian tram rail_urban rail rail_electric rail_fast ship" speed="13.89" length="58.17" width="3.50" shape="510.65,718.91 502.66,703.58 497.27,692.89 493.63,681.67 490.86,664.78"/>
        <lane id=":703_1_2" index="2" disallow="pedestrian tram rail_urban rail rail_electric rail_fast ship" speed="13.89" length="56.99" width="3.50" shape="513.78,717.36 505.95,702.35 500.65,691.88 497.05,680.90 494.33,664.36"/>
        <lane id=":703_1_3" index="3" disallow="pedestrian tram rail_urban rail rail_electric rail_fast ship" speed="13.89" length="56.26" width="3.50" shape="513.78,717.36 506.55,702.36 502.43,691.65 499.99,680.44 497.81,663.93"/>
    </edge>
    <edge id=":703_5" function="internal">
        <lane id=":703_5_0" index="0" disallow="pedestrian tram rail_urban rail rail_electric rail_fast ship" speed="13.89" length="50.91" width="3.50" shape="518.65,661.38 520.57,675.80 522.70,685.59 526.29,694.95 532.61,708.06"/>
        <lane id=":703_5_1" index="1" disallow="pedestrian tram rail_urban rail rail_electric rail_fast ship" speed="13.89" length="50.91" width="3.50" shape="508.23,662.65 510.29,677.79 512.70,688.58 516.61,698.92 523.20,712.71"/>
    </edge>
    <edge id=":720_0" function="internal">
        <lane id=":720_0_0" index="0" disallow="pedestrian tram rail_urban rail rail_electric rail_fast ship" speed="13.89" length="35.90" width="3.50" shape="433.39,417.90,9.81 397.50,417.95,9.20"/>
        <lane id=":720_0_1" index="1" disallow="pedestrian tram rail_urban rail rail_electric rail_fast ship" speed="13.89" length="35.90" width="3.50" shape="433.39,414.40,9.81 397.50,414.45,9.20"/>
        <lane id=":720_0_2" index="2" disallow="pedestrian tram rail_urban rail rail_electric rail_fast ship" speed="13.89" length="35.90" width="3.50" shape="433.39,410.90,9.81 397.50,410.95,9.20"/>
        <lane id=":720_0_3" index="3" disallow="pedestrian tram rail_urban rail rail_electric rail_fast ship" speed="13.89" length="35.90" width="3.50" shape="433.39,407.40,9.81 397.50,407.45,9.20"/>
    </edge>
    <edge id=":720_4" function="internal">
        <lane id=":720_4_0" index="0" disallow="pedestrian tram rail_urban rail rail_electric rail_fast ship" speed="13.89" length="35.90" width="3.50" shape="397.50,386.45,9.20 433.39,386.40,9.81"/>
        <lane id=":720_4_1" index="1" disallow="pedestrian tram rail_urban rail rail_electric rail_fast ship" speed="13.89" length="35.90" width="3.50" shape="397.50,389.95,9.20 433.39,389.90,9.81"/>
        <lane id=":720_4_2" index="2" disallow="pedestrian tram rail_urban rail rail_electric rail_fast ship" speed="13.89" length="35.90" width="3.50" shape="397.50,393.45,9.20 433.39,393.40,9.81"/>
        <lane id=":720_4_3" index="3" disallow="pedestrian tram rail_urban rail rail_electric rail_fast ship" speed="13.89" length="35.90" width="3.50" shape="397.50,396.95,9.20 433.39,396.90,9.81"/>
    </edge>
    <edge id=":804_0" function="internal">
        <lane id=":804_0_0" index="0" disallow="pedestrian tram rail_urban rail rail_electric rail_fast ship" speed="6.67" length="9.30" width="3.50" shape="118.24,423.89 117.85,421.34 116.77,419.51 115.00,418.41 112.52,418.03"/>
        <lane id=":804_0_1" index="1" disallow="pedestrian tram rail_urban rail rail_electric rail_fast ship" speed="7.54" length="12.23" width="3.50" shape="118.24,423.89 117.84,419.81 116.76,416.89 114.99,415.13 112.54,414.53"/>
    </edge>
    <edge id=":804_2" function="internal">
        <lane id=":804_2_0" index="0" disallow="pedestrian tram rail_urban rail rail_electric rail_fast ship" speed="13.89" length="25.29" width="3.50" shape="137.84,418.19 112.52,418.03"/>
        <lane id=":804_2_1" index="1" disallow="pedestrian tram rail_urban rail rail_electric rail_fast ship" speed="13.89" length="25.29" width="3.50" shape="137.84,414.69 112.54,414.53"/>
        <lane id=":804_2_2" index="2" disallow="pedestrian tram rail_urban rail rail_electric rail_fast ship" speed="13.89" length="25.29" width="3.50" shape="137.84,411.19 112.57,411.03"/>
        <lane id=":804_2_3" index="3" disallow="pedestrian tram rail_urban rail rail_electric rail_fast ship" speed="13.89" length="25.29" width="3.50" shape="137.84,407.69 112.59,407.53"/>
    </edge>
    <edge id=":804_6" function="internal">
        <lane id=":804_6_0" index="0" disallow="pedestrian tram rail_urban rail rail_electric rail_fast ship" speed="13.89" length="25.15" width="3.50" shape="112.73,386.53 137.84,386.69"/>
        <lane id=":804_6_1" index="1" disallow="pedestrian tram rail_urban rail rail_electric rail_fast ship" speed="13.89" length="25.15" width="3.50" shape="112.70,390.03 137.84,390.19"/>
        <lane id=":804_6_2" index="2" disallow="pedestrian tram rail_urban rail rail_electric rail_fast ship" speed="13.89" length="25.15" width="3.50" shape="112.68,393.53 137.84,393.69"/>
        <lane id=":804_6_3" index="3" disallow="pedestrian tram rail_urban rail rail_electric rail_fast ship" speed="13.89" length="25.15" width="3.50" shape="112.66,397.03 137.84,397.19"/>
    </edge>
    <edge id=":863_0" function="internal">
        <lane id=":863_0_0" index="0" disallow="pedestrian tram rail_urban rail rail_electric rail_fast ship" speed="13.89" length="14.38" width="3.50" shape="486.25,603.29 486.31,588.91"/>
        <lane id=":863_0_1" index="1" disallow="pedestrian tram rail_urban rail rail_electric rail_fast ship" speed="13.89" length="14.38" width="3.50" shape="489.75,603.29 489.81,588.91"/>
        <lane id=":863_0_2" index="2" disallow="pedestrian tram rail_urban rail rail_electric rail_fast ship" speed="13.89" length="14.38" width="3.50" shape="493.25,603.29 493.31,588.91"/>
        <lane id=":863_0_3" index="3" disallow="pedestrian tram rail_urban rail rail_electric rail_fast ship" speed="13.89" length="14.38" width="3.50" shape="496.75,603.29 496.81,588.91"/>
    </edge>
    <edge id=":863_4" function="internal">
        <lane id=":863_4_0" index="0" disallow="pedestrian tram rail_urban rail rail_electric rail_fast ship" speed="13.89" length="14.38" width="3.50" shape="517.81,588.91 517.75,603.29"/>
        <lane id=":863_4_1" index="1" disallow="pedestrian tram rail_urban rail rail_electric rail_fast ship" speed="13.89" length="14.38" width="3.50" shape="514.31,588.91 514.25,603.29"/>
        <lane id=":863_4_2" index="2" disallow="pedestrian tram rail_urban rail rail_electric rail_fast ship" speed="13.89" length="14.38" width="3.50" shape="510.81,588.91 510.75,603.29"/>
        <lane id=":863_4_3" index="3" disallow="pedestrian tram rail_urban rail rail_electric rail_fast ship" speed="13.89" length="14.38" width="3.50" shape="507.31,588.91 507.25,603.29"/>
    </edge>
    <edge id=":92_0" function="internal">
        <lane id=":92_0_0" index="0" disallow="pedestrian tram rail_urban rail rail_electric rail_fast ship" speed="13.89" length="48.16" width="3.50" shape="472.70,129.43 467.10,116.74 462.67,108.31 457.27,100.45 448.76,89.49"/>
        <lane id=":92_0_1" index="1" disallow="pedestrian tram rail_urban rail rail_electric rail_fast ship" speed="13.89" length="48.16" width="3.50" shape="475.91,128.04 470.20,115.11 465.69,106.51 460.19,98.50 451.52,87.33"/>
        <lane id=":92_0_2" index="2" disallow="pedestrian tram rail_urban rail rail_electric rail_fast ship" speed="13.89" length="48.16" width="3.50" shape="479.13,126.66 473.31,113.48 468.71,104.72 463.11,96.56 454.27,85.17"/>
        <lane id=":92_0_3" index="3" disallow="pedestrian tram rail_urban rail rail_electric rail_fast ship" speed="13.89" length="48.16" width="3.50" shape="482.34,125.28 476.42,111.85 471.73,102.92 466.03,94.61 457.02,83.01"/>
    </edge>
    <edge id=":92_4" function="internal">
        <lane id=":92_4_0" index="0" disallow="pedestrian tram rail_urban rail rail_electric rail_fast ship" speed="13.89" length="55.09" width="3.50" shape="473.54,70.04 484.09,82.47 493.30,91.71 502.26,99.92 512.06,109.27"/>
        <lane id=":92_4_1" index="1" disallow="pedestrian tram rail_urban rail rail_electric rail_fast ship" speed="13.89" length="55.09" width="3.50" shape="473.54,70.04 483.70,82.86 492.06,92.94 500.17,102.00 509.57,111.74"/>
    </edge>
    <edge id=":92_6" function="internal">
        <lane id=":92_6_0" index="0" disallow="pedestrian tram rail_urban rail rail_electric rail_fast ship" speed="13.89" length="54.94" width="3.50" shape="473.54,70.04 483.05,82.44 489.67,92.27 495.25,102.72 501.63,116.98"/>
        <lane id=":92_6_1" index="1" disallow="pedestrian tram rail_urban rail rail_electric rail_fast ship" speed="13.89" length="54.04" width="3.50" shape="470.79,72.20 480.23,84.48 486.69,94.05 492.10,104.23 498.42,118.36"/>
        <lane id=":92_6_2" index="2" disallow="pedestrian tram rail_urban rail rail_electric rail_fast ship" speed="13.89" length="53.14" width="3.50" shape="468.04,74.37 477.40,86.52 483.70,95.82 488.96,105.73 495.20,119.75"/>
        <lane id=":92_6_3" index="3" disallow="pedestrian tram rail_urban rail rail_electric rail_fast ship" speed="13.89" length="52.24" width="3.50" shape="465.28,76.53 474.58,88.56 480.72,97.59 485.82,107.24 491.99,121.13"/>
    </edge>
