<?xml version="1.0" encoding="UTF-8"?>

<!-- generated on 2022-01-03 15:52:05 by Eclipse SUMO duarouter Version 1.11.0
<configuration xmlns:xsi="http://www.w3.org/2001/XMLSchema-instance" xsi:noNamespaceSchemaLocation="http://sumo.dlr.de/xsd/duarouterConfiguration.xsd">

    <input>
        <net-file value=".\script_carla\map_net_xml\campus_irit_map.net.xml"/>
        <route-files value="trips.trips.xml"/>
    </input>

    <output>
        <output-file value=".\script_carla\map_rou_xml\campus_irit_map.rou.xml"/>
        <alternatives-output value=".\script_carla\map_rou_xml\campus_irit_map.rou.alt.xml"/>
    </output>

    <time>
        <begin value="0"/>
        <end value="50"/>
    </time>

    <report>
        <no-warnings value="true"/>
        <ignore-errors value="true"/>
        <no-step-log value="true"/>
    </report>

</configuration>
-->

<routes xmlns:xsi="http://www.w3.org/2001/XMLSchema-instance" xsi:noNamespaceSchemaLocation="http://sumo.dlr.de/xsd/routes_file.xsd">
    <vType height="1.549050211906433" id="vehicle.audi.a2" length="3.705369472503662" vClass="passenger" width="1.788678526878357"/>
    <vType height="1.5012825727462769" id="vehicle.nissan.micra" length="3.633375883102417" vClass="passenger" width="1.845113754272461"/>
    <vType height="1.385296106338501" id="vehicle.audi.tt" length="4.181210041046143" vClass="passenger" width="1.9941171407699585"/>
    <vType height="1.441947340965271" id="vehicle.mercedes.coupe_2020" length="4.673638820648193" vClass="passenger" width="1.8118125200271606"/>
    <vType height="1.6672759056091309" id="vehicle.bmw.grandtourer" length="4.611005783081055" vClass="passenger" width="2.241713285446167"/>
    <vType height="1.2765706777572632" id="vehicle.harley-davidson.low_rider" length="2.3557403087615967" vClass="motorcycle" width="0.7636788487434387"/>
    <vType height="2.431375741958618" id="vehicle.ford.ambulance" length="6.36564302444458" vClass="passenger" width="2.3511743545532227"/>
    <vType height="1.3760247230529785" id="vehicle.micro.microlino" length="2.2072951793670654" vClass="evehicle" width="1.4809197187423706"/>
    <vType height="3.8274123668670654" id="vehicle.carlamotors.firetruck" length="8.46804141998291" vClass="passenger" width="2.8910882472991943"/>
    <vType guiShape="truck" height="2.467444658279419" id="vehicle.carlamotors.carlacola" length="5.203838348388672" vClass="truck" width="2.6269896030426025"/>
    <vType height="1.300939917564392" id="vehicle.ford.mustang" length="4.717525005340576" vClass="passenger" width="1.894826889038086"/>
    <vType height="1.4106587171554565" id="vehicle.chevrolet.impala" length="5.357479572296143" vClass="passenger" width="2.033202886581421"/>
    <vType height="1.490277647972107" id="vehicle.lincoln.mkz_2020" length="4.89238166809082" vClass="passenger" width="1.8367133140563965"/>
    <vType height="1.6171095371246338" id="vehicle.citroen.c3" length="3.987684965133667" vClass="passenger" width="1.8508483171463013"/>
    <vType guiShape="police" height="1.5421181917190552" id="vehicle.dodge.charger_police" length="4.974244117736816" vClass="authority" width="2.0384011268615723"/>
    <vType height="1.8548461198806763" id="vehicle.nissan.patrol" length="4.6045098304748535" vClass="passenger" width="1.9315929412841797"/>
    <vType height="1.8779358863830566" id="vehicle.jeep.wrangler_rubicon" length="3.866220712661743" vClass="passenger" width="1.9051965475082397"/>
    <vType height="1.4750301837921143" id="vehicle.mini.cooper_s" length="3.805800199508667" vClass="passenger" width="1.970275640487671"/>
    <vType height="1.6506516933441162" id="vehicle.mercedes.coupe" length="5.0267767906188965" vClass="passenger" width="2.1515462398529053"/>
    <vType height="1.5347249507904053" id="vehicle.dodge.charger_2020" length="5.0078253746032715" vClass="passenger" width="1.8816219568252563"/>
    <vType height="1.5749659538269043" id="vehicle.ford.crown" length="5.365678787231445" vClass="passenger" width="1.8007241487503052"/>
    <vType height="1.4738311767578125" id="vehicle.seat.leon" length="4.1928300857543945" vClass="passenger" width="1.8161858320236206"/>
    <vType height="1.5248334407806396" id="vehicle.toyota.prius" length="4.513522624969482" vClass="evehicle" width="2.006814479827881"/>
    <vType height="1.2511454820632935" id="vehicle.yamaha.yzf" length="2.2094459533691406" vClass="motorcycle" width="0.8670341968536377"/>
    <vType height="1.1454535722732544" id="vehicle.kawasaki.ninja" length="2.0333523750305176" vClass="motorcycle" width="0.8025798797607422"/>
    <vType height="1.0795789957046509" id="vehicle.bh.crossbike" length="1.4872888326644897" vClass="bicycle" width="0.8592574596405029"/>
    <vType height="1.4876600503921509" id="vehicle.tesla.model3" length="4.791779518127441" vClass="evehicle" width="2.163450002670288"/>
    <vType height="1.1256572008132935" id="vehicle.gazelle.omafiets" length="1.8354405164718628" vClass="bicycle" width="0.3289288878440857"/>
    <vType height="2.098191261291504" id="vehicle.tesla.cybertruck" length="6.273553371429443" vClass="evehicle" width="2.3895740509033203"/>
    <vType height="1.0239027738571167" id="vehicle.diamondback.century" length="1.6428436040878296" vClass="bicycle" width="0.3725162446498871"/>
    <vType height="2.560655355453491" id="vehicle.mercedes.sprinter" length="5.91519021987915" vClass="passenger" width="1.9884328842163086"/>
    <vType height="1.6493593454360962" id="vehicle.audi.etron" length="4.855708599090576" vClass="evehicle" width="2.0327565670013428"/>
    <vType guiShape="passenger/van" height="2.0377919673919678" id="vehicle.volkswagen.t2" length="4.4804368019104" vClass="passenger" width="2.069315195083618"/>
    <vType height="1.5107464790344238" id="vehicle.lincoln.mkz_2017" length="4.901683330535889" vClass="passenger" width="2.128324270248413"/>
    <vType height="1.638383150100708" id="vehicle.dodge.charger_police_2020" length="5.237514495849609" vClass="passenger" width="1.9297595024108887"/>
    <vType height="1.235628366470337" id="vehicle.vespa.zx125" length="1.8046669960021973" vClass="motorcycle" width="0.85568767786026"/>
    <vType height="1.7671663761138916" id="vehicle.mini.cooper_s_2021" length="4.552699089050293" vClass="passenger" width="2.097072124481201"/>
    <vType height="2.045147180557251" id="vehicle.nissan.patrol_2021" length="5.565828800201416" vClass="passenger" width="2.1499669551849365"/>
    <vType height="1.9872066974639893" id="vehicle.volkswagen.t2_2021" length="4.442183971405029" vClass="passenger" width="1.77456533908844"/>
    <vehicle id="0" depart="0.00">
        <route edges="-2001.0.00 -2002.0.00 -2115.0.00 -1903.0.00 -1902.0.00 -1901.0.00 -1900.0.00 -1805.0.00 -1919.0.00 -1920.0.00 -1803.0.00 -1802.0.00 -1804.0.00"/>
    </vehicle>
    <vehicle id="1" depart="1.00">
        <route edges="-1853.0.00 -2122.0.00 -2123.0.00 -2124.0.00 -2116.0.00 -1929.0.00 -1899.0.00 -1806.0.00 -1925.0.00 -1981.0.00 -1982.0.00 -1913.0.00 -1911.0.00 -2069.0.00 -1848.0.00"/>
    </vehicle>
    <vehicle id="2" depart="2.00">
        <route edges="-2025.0.00 -2100.0.00 -2101.0.00 -1917.0.00 -1939.0.00 -2017.0.00"/>
    </vehicle>
    <vehicle id="3" depart="3.00">
        <route edges="-2079.0.00 -2080.0.00 -2081.0.00 -1947.0.00 -1961.0.00 -1971.0.00 -1970.0.00 -1993.0.00 -2064.0.00 -1965.0.00 -1907.0.00 -1908.0.00 -2049.0.00 -2011.0.00 -2012.0.00 -2102.0.00 -2099.0.00 -1847.0.00 -1837.0.00 -1818.0.00"/>
    </vehicle>
    <vehicle id="4" depart="4.00">
        <route edges="-1911.0.00 -2022.0.00 -1914.0.00 -1984.0.00 -1985.0.00 -1986.0.00 -1924.0.00 -1926.0.00 -1806.0.00"/>
    </vehicle>
    <vehicle id="6" depart="6.00">
        <route edges="-1805.0.00 -1919.0.00 -1920.0.00 -1803.0.00 -1802.0.00 -1804.0.00 -2098.0.00 -2099.0.00 -1847.0.00 -1846.0.00 -1845.0.00"/>
    </vehicle>
    <vehicle id="7" depart="7.00">
        <route edges="-2006.0.00 -1830.0.00 -1829.0.00 -1948.0.00 -2046.0.00 -1980.0.00 -2104.0.00 -2010.0.00 -2119.0.00 -2042.0.00 -2050.0.00 -1949.0.00 -1966.0.00 -1967.0.00 -1968.0.00"/>
    </vehicle>
    <vehicle id="9" depart="9.00">
        <route edges="-2050.0.00 -1961.0.00 -1971.0.00 -1970.0.00 -1993.0.00 -2064.0.00 -1965.0.00 -1907.0.00 -1908.0.00 -2049.0.00 -2011.0.00 -2012.0.00 -2102.0.00 -2099.0.00 -2100.0.00 -1938.0.00 -1884.0.00 -1800.0.00"/>
    </vehicle>
    <vehicle id="10" depart="10.00">
        <route edges="-2042.0.00 -1950.0.00 -2064.0.00 -1965.0.00 -1906.0.00 -2004.0.00 -1832.0.00 -2024.0.00"/>
    </vehicle>
    <vehicle id="11" depart="11.00">
        <route edges="-1871.0.00 -2041.0.00 -1898.0.00 -2031.0.00 -1923.0.00 -2115.0.00 -2116.0.00 -1929.0.00 -1899.0.00 -1806.0.00 -1925.0.00 -1981.0.00 -1810.0.00 -1809.0.00 -1808.0.00 -1969.0.00 -1955.0.00 -1956.0.00 -1957.0.00 -1836.0.00"/>
    </vehicle>
    <vehicle id="12" depart="12.00">
        <route edges="-2118.0.00 -1981.0.00 -1982.0.00 -1983.0.00 -1984.0.00 -1985.0.00 -1986.0.00 -1924.0.00 -1926.0.00 -1927.0.00 -1928.0.00 -2030.0.00 -2031.0.00 -1923.0.00 -2115.0.00 -1903.0.00 -1902.0.00 -1901.0.00 -1900.0.00"/>
    </vehicle>
    <vehicle id="13" depart="13.00">
        <route edges="-1817.0.00 -1955.0.00 -2027.0.00 -1958.0.00 -1819.0.00"/>
    </vehicle>
    <vehicle id="14" depart="14.00">
        <route edges="-2069.0.00 -1839.0.00 -2043.0.00 -1893.0.00 -1892.0.00 -2092.0.00 -1816.0.00 -1817.0.00 -1937.0.00 -1930.0.00 -1931.0.00 -2021.0.00 -2056.0.00 -1851.0.00 -1927.0.00 -1928.0.00 -2030.0.00 -2031.0.00 -2001.0.00 -2059.0.00 -2111.0.00 -2112.0.00 -1997.0.00 -1998.0.00"/>
    </vehicle>
    <vehicle id="15" depart="15.00">
        <route edges="-2043.0.00 -1893.0.00 -1892.0.00 -2095.0.00 -2096.0.00 -1860.0.00 -2097.0.00 -2026.0.00"/>
    </vehicle>
    <vehicle id="16" depart="16.00">
        <route edges="-1957.0.00 -2121.0.00 -1892.0.00 -2092.0.00 -1816.0.00 -1817.0.00 -1937.0.00 -1930.0.00 -1931.0.00 -2021.0.00 -2056.0.00 -1851.0.00 -1927.0.00 -1928.0.00 -2030.0.00 -2031.0.00 -2001.0.00 -2059.0.00 -2111.0.00 -2112.0.00 -1997.0.00 -1998.0.00 -2105.0.00 -2106.0.00"/>
    </vehicle>
    <vehicle id="17" depart="17.00">
        <route edges="-1897.0.00 -1896.0.00 -1895.0.00 -1826.0.00 -2113.0.00 -2114.0.00 -2120.0.00 -2077.0.00 -2078.0.00 -1968.0.00"/>
    </vehicle>
    <vehicle id="18" depart="18.00">
        <route edges="-2064.0.00 -1965.0.00 -1907.0.00 -1908.0.00 -2049.0.00 -2011.0.00 -2012.0.00 -2102.0.00 -2099.0.00 -2100.0.00 -2101.0.00 -1917.0.00 -1915.0.00 -1916.0.00 -1918.0.00 -1921.0.00 -1922.0.00 -2122.0.00 -2123.0.00 -2124.0.00 -2116.0.00 -2117.0.00 -2030.0.00 -2031.0.00 -2001.0.00 -2002.0.00"/>
    </vehicle>
    <vehicle id="20" depart="20.00">
        <route edges="-2019.0.00 -1927.0.00 -1928.0.00 -2030.0.00 -2031.0.00 -1923.0.00 -2115.0.00 -1903.0.00 -1902.0.00 -1901.0.00 -1900.0.00 -1807.0.00"/>
    </vehicle>
    <vehicle id="21" depart="21.00">
        <route edges="-1847.0.00 -1837.0.00 -1818.0.00 -1905.0.00 -1936.0.00 -1937.0.00 -1866.0.00"/>
    </vehicle>
    <vehicle id="22" depart="22.00">
        <route edges="-1816.0.00 -1956.0.00 -1957.0.00 -2121.0.00 -2096.0.00 -1860.0.00 -2097.0.00 -1848.0.00"/>
    </vehicle>
    <vehicle id="23" depart="23.00">
        <route edges="-1818.0.00 -1905.0.00 -1936.0.00 -1937.0.00 -1930.0.00 -1931.0.00 -2021.0.00 -2056.0.00 -1851.0.00 -1927.0.00 -1928.0.00 -2030.0.00 -2032.0.00 -1859.0.00 -1858.0.00"/>
    </vehicle>
    <vehicle id="24" depart="24.00">
        <route edges="-1998.0.00 -1895.0.00 -1826.0.00 -2113.0.00 -1909.0.00 -1995.0.00 -1996.0.00 -1850.0.00 -2002.0.00 -2115.0.00 -2116.0.00 -1929.0.00 -1899.0.00 -1806.0.00 -1925.0.00 -1981.0.00 -1982.0.00 -1913.0.00 -1911.0.00"/>
    </vehicle>
    <vehicle id="25" depart="25.00">
        <route edges="-1895.0.00 -1826.0.00 -2113.0.00 -1909.0.00 -1995.0.00 -1996.0.00 -1850.0.00 -2002.0.00 -2115.0.00 -2116.0.00 -1929.0.00 -1899.0.00 -1806.0.00 -1925.0.00 -1981.0.00 -1810.0.00 -1809.0.00 -1808.0.00 -1969.0.00 -1955.0.00 -2027.0.00 -2028.0.00 -1846.0.00"/>
    </vehicle>
    <vehicle id="26" depart="26.00">
        <route edges="-1850.0.00 -2002.0.00 -2115.0.00 -2116.0.00 -1929.0.00 -1899.0.00 -1806.0.00 -1925.0.00 -1981.0.00 -1810.0.00 -1809.0.00 -1808.0.00 -1866.0.00 -2084.0.00"/>
    </vehicle>
    <vehicle id="27" depart="27.00">
        <route edges="-2006.0.00 -1830.0.00 -1829.0.00 -1948.0.00 -2046.0.00 -1980.0.00 -2104.0.00 -2010.0.00 -2119.0.00 -2042.0.00 -2050.0.00 -1949.0.00 -1966.0.00 -1967.0.00 -1968.0.00 -2082.0.00 -2126.0.00 -1994.0.00 -1995.0.00 -1910.0.00 -2112.0.00 -1997.0.00 -2088.0.00 -2089.0.00 -2090.0.00 -1999.0.00"/>
    </vehicle>
    <vehicle id="28" depart="28.00">
        <route edges="-1834.0.00 -1969.0.00 -1955.0.00 -1956.0.00 -1957.0.00 -2121.0.00 -2096.0.00 -1860.0.00 -2097.0.00 -2026.0.00"/>
    </vehicle>
    <vehicle id="29" depart="29.00">
        <route edges="-1833.0.00 -1942.0.00 -1916.0.00"/>
    </vehicle>
    <vehicle id="30" depart="30.00">
        <route edges="-2127.0.00 -1906.0.00 -2004.0.00 -1832.0.00 -1959.0.00 -2007.0.00"/>
    </vehicle>
    <vehicle id="31" depart="31.00">
        <route edges="-1966.0.00 -1967.0.00 -2038.0.00 -1853.0.00 -2122.0.00 -2123.0.00 -2124.0.00 -2116.0.00 -1929.0.00 -1899.0.00 -1806.0.00 -1925.0.00 -1981.0.00 -1810.0.00 -2021.0.00"/>
    </vehicle>
    <vehicle id="32" depart="32.00">
        <route edges="-2069.0.00 -1839.0.00 -2043.0.00 -1893.0.00 -1892.0.00 -2092.0.00 -1816.0.00 -1817.0.00 -1937.0.00 -1930.0.00 -1931.0.00 -2021.0.00 -2056.0.00 -1851.0.00 -1927.0.00 -1928.0.00 -2030.0.00 -2032.0.00 -1859.0.00 -2041.0.00"/>
    </vehicle>
    <vehicle id="33" depart="33.00">
        <route edges="-1847.0.00 -1837.0.00 -1818.0.00 -1905.0.00 -1936.0.00 -1937.0.00 -1930.0.00 -1931.0.00 -2021.0.00 -2056.0.00 -1851.0.00 -1806.0.00"/>
    </vehicle>
    <vehicle id="34" depart="34.00">
        <route edges="-1866.0.00 -1834.0.00 -1930.0.00 -1931.0.00 -2021.0.00 -2056.0.00 -1851.0.00 -1927.0.00 -1928.0.00 -2030.0.00 -2031.0.00 -1923.0.00 -2115.0.00 -1903.0.00 -1902.0.00 -2036.0.00 -1854.0.00"/>
    </vehicle>
    <vehicle id="35" depart="35.00">
        <route edges="-1845.0.00 -1848.0.00 -2022.0.00 -1914.0.00 -1984.0.00 -1985.0.00 -1986.0.00 -1924.0.00 -1926.0.00 -1927.0.00 -1928.0.00 -2030.0.00 -2031.0.00 -2001.0.00 -2059.0.00 -2111.0.00 -2112.0.00 -1997.0.00 -2088.0.00 -2089.0.00 -2090.0.00"/>
    </vehicle>
    <vehicle id="36" depart="36.00">
        <route edges="-2072.0.00 -1989.0.00 -1991.0.00 -1823.0.00 -1822.0.00 -1879.0.00"/>
    </vehicle>
    <vehicle id="37" depart="37.00">
        <route edges="-2006.0.00 -1830.0.00 -1829.0.00 -1951.0.00 -1908.0.00 -2049.0.00 -2011.0.00 -2012.0.00 -2102.0.00 -2099.0.00 -2100.0.00 -1938.0.00 -1884.0.00 -1905.0.00 -1936.0.00 -1937.0.00 -1930.0.00 -1931.0.00 -1932.0.00 -1982.0.00 -1983.0.00 -1984.0.00 -1985.0.00 -1986.0.00 -1924.0.00 -1926.0.00"/>
    </vehicle>
    <vehicle id="38" depart="38.00">
        <route edges="-2084.0.00 -1933.0.00 -1935.0.00 -1801.0.00 -2085.0.00 -2008.0.00 -1942.0.00 -1802.0.00 -1939.0.00 -1940.0.00 -1941.0.00 -2010.0.00 -2119.0.00 -2042.0.00 -2050.0.00 -1961.0.00 -1972.0.00 -2051.0.00 -2052.0.00 -1953.0.00"/>
    </vehicle>
    <vehicle id="39" depart="39.00">
        <route edges="-1849.0.00 -1813.0.00 -1884.0.00 -1905.0.00 -1936.0.00 -1955.0.00 -1956.0.00 -1957.0.00 -2121.0.00 -2096.0.00 -1860.0.00 -2097.0.00 -1848.0.00"/>
    </vehicle>
    <vehicle id="40" depart="40.00">
        <route edges="-1966.0.00 -1967.0.00 -2038.0.00 -1853.0.00"/>
    </vehicle>
    <vehicle id="41" depart="41.00">
        <route edges="-1969.0.00 -1937.0.00 -1930.0.00 -1931.0.00 -2021.0.00 -2056.0.00 -1851.0.00 -1927.0.00 -1928.0.00 -2030.0.00 -2031.0.00 -2001.0.00 -2059.0.00 -2111.0.00 -2112.0.00 -2113.0.00 -2114.0.00 -2120.0.00 -2077.0.00 -2076.0.00"/>
    </vehicle>
    <vehicle id="44" depart="44.00">
        <route edges="-1817.0.00 -1937.0.00 -1930.0.00 -1931.0.00 -2021.0.00 -2056.0.00 -1851.0.00 -1927.0.00 -1928.0.00 -2030.0.00 -2031.0.00 -1923.0.00 -2115.0.00 -1903.0.00 -1902.0.00 -1901.0.00 -1900.0.00 -1807.0.00"/>
    </vehicle>
    <vehicle id="45" depart="45.00">
        <route edges="-1819.0.00 -2028.0.00 -1846.0.00 -2006.0.00"/>
    </vehicle>
    <vehicle id="46" depart="46.00">
        <route edges="-2036.0.00 -1854.0.00 -2124.0.00 -2116.0.00 -1929.0.00 -1899.0.00 -1806.0.00 -1925.0.00 -1981.0.00 -1810.0.00 -1809.0.00 -1808.0.00 -1969.0.00 -1937.0.00"/>
    </vehicle>
    <vehicle id="47" depart="47.00">
        <route edges="-1815.0.00 -1945.0.00 -2064.0.00 -1965.0.00 -1907.0.00 -1908.0.00 -2049.0.00 -2011.0.00 -2012.0.00 -2102.0.00 -2099.0.00 -2100.0.00 -2101.0.00 -1917.0.00 -1915.0.00 -1916.0.00"/>
    </vehicle>
    <vehicle id="48" depart="48.00">
        <route edges="-2127.0.00 -1907.0.00 -1908.0.00 -1980.0.00 -2104.0.00 -2010.0.00 -2119.0.00 -2042.0.00 -2050.0.00 -1949.0.00 -1966.0.00"/>
    </vehicle>
    <vehicle id="49" depart="49.00">
        <route edges="-2123.0.00 -2124.0.00 -2116.0.00 -1929.0.00 -1899.0.00 -1806.0.00 -1925.0.00 -1981.0.00 -1982.0.00 -1913.0.00 -1911.0.00 -2069.0.00"/>
    </vehicle>
</routes>
