<?xml version='1.0' encoding='UTF-8'?>
<!--generated on 2021-12-15 16:12:47 by create_sumo_vtypes.py-->
<routes>
  <vType height="1.549050211906433" id="vehicle.audi.a2" length="3.705369472503662" vClass="passenger" width="1.788678526878357"/>
  <vType height="1.5012825727462769" id="vehicle.nissan.micra" length="3.633375883102417" vClass="passenger" width="1.845113754272461"/>
  <vType height="1.385296106338501" id="vehicle.audi.tt" length="4.181210041046143" vClass="passenger" width="1.9941171407699585"/>
  <vType height="1.441947340965271" id="vehicle.mercedes.coupe_2020" length="4.673638820648193" vClass="passenger" width="1.8118125200271606"/>
  <vType height="1.6672759056091309" id="vehicle.bmw.grandtourer" length="4.611005783081055" vClass="passenger" width="2.241713285446167"/>
  <vType height="1.2765706777572632" id="vehicle.harley-davidson.low_rider" length="2.3557403087615967" vClass="motorcycle" width="0.7636788487434387"/>
  <vType height="2.431375741958618" id="vehicle.ford.ambulance" length="6.36564302444458" vClass="passenger" width="2.3511743545532227"/>
  <vType height="1.3760247230529785" id="vehicle.micro.microlino" length="2.2072951793670654" vClass="evehicle" width="1.4809197187423706"/>
  <vType height="3.8274123668670654" id="vehicle.carlamotors.firetruck" length="8.46804141998291" vClass="passenger" width="2.8910882472991943"/>
  <vType guiShape="truck" height="2.467444658279419" id="vehicle.carlamotors.carlacola" length="5.203838348388672" vClass="truck" width="2.6269896030426025"/>
  <vType height="1.300939917564392" id="vehicle.ford.mustang" length="4.717525005340576" vClass="passenger" width="1.894826889038086"/>
  <vType height="1.4106587171554565" id="vehicle.chevrolet.impala" length="5.357479572296143" vClass="passenger" width="2.033202886581421"/>
  <vType height="1.490277647972107" id="vehicle.lincoln.mkz_2020" length="4.89238166809082" vClass="passenger" width="1.8367133140563965"/>
  <vType height="1.6171095371246338" id="vehicle.citroen.c3" length="3.987684965133667" vClass="passenger" width="1.8508483171463013"/>
  <vType guiShape="police" height="1.5421181917190552" id="vehicle.dodge.charger_police" length="4.974244117736816" vClass="authority" width="2.0384011268615723"/>
  <vType height="1.8548461198806763" id="vehicle.nissan.patrol" length="4.6045098304748535" vClass="passenger" width="1.9315929412841797"/>
  <vType height="1.8779358863830566" id="vehicle.jeep.wrangler_rubicon" length="3.866220712661743" vClass="passenger" width="1.9051965475082397"/>
  <vType height="1.4750301837921143" id="vehicle.mini.cooper_s" length="3.805800199508667" vClass="passenger" width="1.970275640487671"/>
  <vType height="1.6506516933441162" id="vehicle.mercedes.coupe" length="5.0267767906188965" vClass="passenger" width="2.1515462398529053"/>
  <vType height="1.5347249507904053" id="vehicle.dodge.charger_2020" length="5.0078253746032715" vClass="passenger" width="1.8816219568252563"/>
  <vType height="1.5749659538269043" id="vehicle.ford.crown" length="5.365678787231445" vClass="passenger" width="1.8007241487503052"/>
  <vType height="1.4738311767578125" id="vehicle.seat.leon" length="4.1928300857543945" vClass="passenger" width="1.8161858320236206"/>
  <vType height="1.5248334407806396" id="vehicle.toyota.prius" length="4.513522624969482" vClass="evehicle" width="2.006814479827881"/>
  <vType height="1.2511454820632935" id="vehicle.yamaha.yzf" length="2.2094459533691406" vClass="motorcycle" width="0.8670341968536377"/>
  <vType height="1.1454535722732544" id="vehicle.kawasaki.ninja" length="2.0333523750305176" vClass="motorcycle" width="0.8025798797607422"/>
  <vType height="1.0795789957046509" id="vehicle.bh.crossbike" length="1.4872888326644897" vClass="bicycle" width="0.8592574596405029"/>
  <vType height="1.4876600503921509" id="vehicle.tesla.model3" length="4.791779518127441" vClass="evehicle" width="2.163450002670288"/>
  <vType height="1.1256572008132935" id="vehicle.gazelle.omafiets" length="1.8354405164718628" vClass="bicycle" width="0.3289288878440857"/>
  <vType height="2.098191261291504" id="vehicle.tesla.cybertruck" length="6.273553371429443" vClass="evehicle" width="2.3895740509033203"/>
  <vType height="1.0239027738571167" id="vehicle.diamondback.century" length="1.6428436040878296" vClass="bicycle" width="0.3725162446498871"/>
  <vType height="2.560655355453491" id="vehicle.mercedes.sprinter" length="5.91519021987915" vClass="passenger" width="1.9884328842163086"/>
  <vType height="1.6493593454360962" id="vehicle.audi.etron" length="4.855708599090576" vClass="evehicle" width="2.0327565670013428"/>
  <vType guiShape="passenger/van" height="2.0377919673919678" id="vehicle.volkswagen.t2" length="4.4804368019104" vClass="passenger" width="2.069315195083618"/>
  <vType height="1.5107464790344238" id="vehicle.lincoln.mkz_2017" length="4.901683330535889" vClass="passenger" width="2.128324270248413"/>
  <vType height="1.638383150100708" id="vehicle.dodge.charger_police_2020" length="5.237514495849609" vClass="passenger" width="1.9297595024108887"/>
  <vType height="1.235628366470337" id="vehicle.vespa.zx125" length="1.8046669960021973" vClass="motorcycle" width="0.85568767786026"/>
  <vType height="1.7671663761138916" id="vehicle.mini.cooper_s_2021" length="4.552699089050293" vClass="passenger" width="2.097072124481201"/>
  <vType height="2.045147180557251" id="vehicle.nissan.patrol_2021" length="5.565828800201416" vClass="passenger" width="2.1499669551849365"/>
  <vType height="1.9872066974639893" id="vehicle.volkswagen.t2_2021" length="4.442183971405029" vClass="passenger" width="1.77456533908844"/>
</routes>
