<?xml version="1.0" encoding="UTF-8"?>

<!-- generated on Wed Feb 16 16:03:15 2022 by SUMO duarouter Version 0.32.0
<?xml version="1.0" encoding="UTF-8"?>

<configuration xmlns:xsi="http://www.w3.org/2001/XMLSchema-instance" xsi:noNamespaceSchemaLocation="http://sumo.dlr.de/xsd/duarouterConfiguration.xsd">

    <input>
        <net-file value="./map_net_xml/insertions_autoroute.net.xml"/>
        <route-files value="trips.trips.xml"/>
    </input>

    <output>
        <output-file value="./map_rou_xml/insertions_autoroute.rou.xml"/>
        <alternatives-output value="./map_rou_xml/insertions_autoroute.rou.alt.xml"/>
    </output>

    <processing>
        <ignore-errors value="true"/>
    </processing>

    <time>
        <begin value="0"/>
        <end value="250"/>
    </time>

    <report>
        <no-warnings value="true"/>
        <no-step-log value="true"/>
    </report>

</configuration>
-->

<routes xmlns:xsi="http://www.w3.org/2001/XMLSchema-instance" xsi:noNamespaceSchemaLocation="http://sumo.dlr.de/xsd/routes_file.xsd">
    <vehicle id="1" depart="1.00">
        <route edges="-174.0.00 -185.0.00 -184.0.00 -179.0.00 -178.0.00 -187.0.00 -175.0.00"/>
    </vehicle>
    <vehicle id="3" depart="3.00">
        <route edges="-184.0.00 -179.0.00 -178.0.00 -187.0.00 -175.0.00"/>
    </vehicle>
    <vehicle id="4" depart="4.00">
        <route edges="-174.0.00 -185.0.00 -184.0.00 -179.0.00 -171.0.00"/>
    </vehicle>
    <vehicle id="5" depart="5.00">
        <route edges="-174.0.00 -185.0.00 -184.0.00 -179.0.00"/>
    </vehicle>
    <vehicle id="6" depart="6.00">
        <route edges="-171.0.00 -179.0.00 -178.0.00 -187.0.00 -175.0.00"/>
    </vehicle>
    <vehicle id="8" depart="8.00">
        <route edges="-174.0.00 -185.0.00 -183.0.00 -182.0.00"/>
    </vehicle>
    <vehicle id="10" depart="10.00">
        <route edges="-182.0.00 -186.0.00"/>
    </vehicle>
    <vehicle id="11" depart="11.00">
        <route edges="-174.0.00 -185.0.00 -184.0.00 -179.0.00 -178.0.00 -187.0.00 -175.0.00"/>
    </vehicle>
    <vehicle id="12" depart="12.00">
        <route edges="-188.0.00 -172.0.00 -178.0.00 -187.0.00 -175.0.00"/>
    </vehicle>
    <vehicle id="13" depart="13.00">
        <route edges="-173.0.00 -172.0.00 -178.0.00 -187.0.00 -175.0.00"/>
    </vehicle>
    <vehicle id="14" depart="14.00">
        <route edges="-183.0.00"/>
    </vehicle>
    <vehicle id="15" depart="15.00">
        <route edges="-182.0.00 -186.0.00"/>
    </vehicle>
    <vehicle id="16" depart="16.00">
        <route edges="-174.0.00 -185.0.00 -184.0.00 -179.0.00 -189.0.00 -190.0.00"/>
    </vehicle>
    <vehicle id="18" depart="18.00">
        <route edges="-183.0.00"/>
    </vehicle>
    <vehicle id="19" depart="19.00">
        <route edges="-183.0.00 -182.0.00"/>
    </vehicle>
    <vehicle id="20" depart="20.00">
        <route edges="-180.0.00 -181.0.00 -187.0.00 -175.0.00"/>
    </vehicle>
    <vehicle id="21" depart="21.00">
        <route edges="-174.0.00 -185.0.00 -184.0.00 -179.0.00 -178.0.00 -187.0.00 -175.0.00"/>
    </vehicle>
    <vehicle id="22" depart="22.00">
        <route edges="-173.0.00 -172.0.00 -178.0.00 -187.0.00 -175.0.00"/>
    </vehicle>
    <vehicle id="23" depart="23.00">
        <route edges="-173.0.00 -172.0.00 -178.0.00 -187.0.00 -175.0.00"/>
    </vehicle>
    <vehicle id="24" depart="24.00">
        <route edges="-178.0.00 -187.0.00 -175.0.00"/>
    </vehicle>
    <vehicle id="25" depart="25.00">
        <route edges="-174.0.00 -185.0.00 -184.0.00 -179.0.00 -178.0.00 -187.0.00 -175.0.00"/>
    </vehicle>
    <vehicle id="28" depart="28.00">
        <route edges="-174.0.00 -185.0.00 -183.0.00 -182.0.00 -186.0.00"/>
    </vehicle>
    <vehicle id="29" depart="29.00">
        <route edges="-174.0.00 -185.0.00 -184.0.00 -179.0.00 -178.0.00 -187.0.00 -175.0.00"/>
    </vehicle>
    <vehicle id="31" depart="31.00">
        <route edges="-174.0.00 -185.0.00 -183.0.00 -182.0.00 -186.0.00"/>
    </vehicle>
    <vehicle id="32" depart="32.00">
        <route edges="-183.0.00 -182.0.00 -186.0.00"/>
    </vehicle>
    <vehicle id="33" depart="33.00">
        <route edges="-174.0.00 -185.0.00 -184.0.00 -179.0.00 -171.0.00"/>
    </vehicle>
    <vehicle id="34" depart="34.00">
        <route edges="-174.0.00 -185.0.00 -184.0.00 -179.0.00 -178.0.00 -187.0.00 -175.0.00"/>
    </vehicle>
    <vehicle id="36" depart="36.00">
        <route edges="-184.0.00 -179.0.00 -178.0.00 -187.0.00 -175.0.00"/>
    </vehicle>
    <vehicle id="37" depart="37.00">
        <route edges="-179.0.00 -178.0.00 -187.0.00 -175.0.00"/>
    </vehicle>
    <vehicle id="39" depart="39.00">
        <route edges="-174.0.00 -185.0.00 -184.0.00 -179.0.00 -178.0.00 -187.0.00 -175.0.00"/>
    </vehicle>
    <vehicle id="42" depart="42.00">
        <route edges="-174.0.00 -185.0.00 -184.0.00 -179.0.00 -178.0.00 -187.0.00 -175.0.00"/>
    </vehicle>
    <vehicle id="43" depart="43.00">
        <route edges="-189.0.00 -190.0.00 -173.0.00 -172.0.00 -171.0.00 -179.0.00"/>
    </vehicle>
    <vehicle id="44" depart="44.00">
        <route edges="-173.0.00 -172.0.00 -178.0.00 -187.0.00 -175.0.00"/>
    </vehicle>
    <vehicle id="45" depart="45.00">
        <route edges="-174.0.00 -185.0.00 -183.0.00"/>
    </vehicle>
    <vehicle id="47" depart="47.00">
        <route edges="-173.0.00 -172.0.00 -178.0.00 -187.0.00 -175.0.00"/>
    </vehicle>
    <vehicle id="49" depart="49.00">
        <route edges="-188.0.00 -172.0.00 -171.0.00 -177.0.00 -182.0.00 -186.0.00"/>
    </vehicle>
    <vehicle id="50" depart="50.00">
        <route edges="-171.0.00 -177.0.00 -182.0.00 -186.0.00"/>
    </vehicle>
    <vehicle id="52" depart="52.00">
        <route edges="-174.0.00 -185.0.00 -184.0.00"/>
    </vehicle>
    <vehicle id="53" depart="53.00">
        <route edges="-174.0.00 -185.0.00 -184.0.00 -179.0.00 -178.0.00"/>
    </vehicle>
    <vehicle id="55" depart="55.00">
        <route edges="-184.0.00 -179.0.00 -178.0.00 -187.0.00 -175.0.00"/>
    </vehicle>
    <vehicle id="56" depart="56.00">
        <route edges="-174.0.00 -185.0.00 -184.0.00 -179.0.00 -178.0.00 -187.0.00 -175.0.00"/>
    </vehicle>
    <vehicle id="58" depart="58.00">
        <route edges="-174.0.00 -185.0.00 -184.0.00"/>
    </vehicle>
    <vehicle id="59" depart="59.00">
        <route edges="-178.0.00 -187.0.00 -175.0.00"/>
    </vehicle>
    <vehicle id="60" depart="60.00">
        <route edges="-181.0.00"/>
    </vehicle>
    <vehicle id="61" depart="61.00">
        <route edges="-181.0.00"/>
    </vehicle>
    <vehicle id="62" depart="62.00">
        <route edges="-171.0.00 -179.0.00 -178.0.00 -187.0.00 -175.0.00"/>
    </vehicle>
    <vehicle id="64" depart="64.00">
        <route edges="-184.0.00 -177.0.00 -182.0.00 -186.0.00"/>
    </vehicle>
    <vehicle id="65" depart="65.00">
        <route edges="-174.0.00 -185.0.00 -184.0.00 -179.0.00 -178.0.00 -187.0.00 -175.0.00"/>
    </vehicle>
    <vehicle id="67" depart="67.00">
        <route edges="-173.0.00 -172.0.00 -171.0.00 -179.0.00"/>
    </vehicle>
    <vehicle id="68" depart="68.00">
        <route edges="-173.0.00 -172.0.00 -171.0.00 -177.0.00 -182.0.00 -186.0.00"/>
    </vehicle>
    <vehicle id="69" depart="69.00">
        <route edges="-181.0.00 -187.0.00 -175.0.00"/>
    </vehicle>
    <vehicle id="71" depart="71.00">
        <route edges="-174.0.00 -185.0.00 -183.0.00 -182.0.00 -186.0.00"/>
    </vehicle>
    <vehicle id="72" depart="72.00">
        <route edges="-174.0.00 -185.0.00 -184.0.00 -179.0.00 -178.0.00 -187.0.00 -175.0.00"/>
    </vehicle>
    <vehicle id="73" depart="73.00">
        <route edges="-174.0.00 -185.0.00 -183.0.00 -182.0.00 -186.0.00"/>
    </vehicle>
    <vehicle id="74" depart="74.00">
        <route edges="-174.0.00 -185.0.00 -184.0.00 -179.0.00 -178.0.00 -187.0.00 -175.0.00"/>
    </vehicle>
    <vehicle id="77" depart="77.00">
        <route edges="-174.0.00 -185.0.00 -184.0.00 -179.0.00 -178.0.00 -187.0.00 -175.0.00"/>
    </vehicle>
    <vehicle id="78" depart="78.00">
        <route edges="-174.0.00 -185.0.00 -183.0.00 -182.0.00"/>
    </vehicle>
    <vehicle id="79" depart="79.00">
        <route edges="-174.0.00 -185.0.00 -184.0.00 -179.0.00 -178.0.00 -187.0.00 -175.0.00"/>
    </vehicle>
    <vehicle id="81" depart="81.00">
        <route edges="-174.0.00 -185.0.00 -184.0.00 -179.0.00 -178.0.00 -187.0.00"/>
    </vehicle>
    <vehicle id="83" depart="83.00">
        <route edges="-174.0.00 -185.0.00"/>
    </vehicle>
    <vehicle id="84" depart="84.00">
        <route edges="-174.0.00 -185.0.00 -184.0.00 -179.0.00 -178.0.00 -187.0.00 -175.0.00"/>
    </vehicle>
    <vehicle id="86" depart="86.00">
        <route edges="-174.0.00 -185.0.00 -183.0.00 -182.0.00 -186.0.00"/>
    </vehicle>
    <vehicle id="88" depart="88.00">
        <route edges="-173.0.00 -172.0.00 -171.0.00 -177.0.00"/>
    </vehicle>
    <vehicle id="89" depart="89.00">
        <route edges="-174.0.00 -185.0.00 -184.0.00 -179.0.00 -178.0.00"/>
    </vehicle>
    <vehicle id="91" depart="91.00">
        <route edges="-188.0.00 -172.0.00 -178.0.00 -187.0.00 -175.0.00"/>
    </vehicle>
    <vehicle id="92" depart="92.00">
        <route edges="-174.0.00 -185.0.00 -184.0.00 -179.0.00 -178.0.00 -187.0.00 -175.0.00"/>
    </vehicle>
    <vehicle id="94" depart="94.00">
        <route edges="-174.0.00 -185.0.00 -184.0.00 -179.0.00 -178.0.00"/>
    </vehicle>
    <vehicle id="95" depart="95.00">
        <route edges="-174.0.00 -185.0.00 -184.0.00 -179.0.00 -178.0.00 -187.0.00 -175.0.00"/>
    </vehicle>
    <vehicle id="97" depart="97.00">
        <route edges="-174.0.00 -185.0.00 -183.0.00 -182.0.00 -186.0.00"/>
    </vehicle>
    <vehicle id="98" depart="98.00">
        <route edges="-174.0.00 -185.0.00 -184.0.00 -179.0.00 -178.0.00 -187.0.00 -175.0.00"/>
    </vehicle>
    <vehicle id="99" depart="99.00">
        <route edges="-189.0.00 -190.0.00 -173.0.00 -172.0.00 -171.0.00 -177.0.00 -182.0.00 -186.0.00"/>
    </vehicle>
    <vehicle id="100" depart="100.00">
        <route edges="-188.0.00"/>
    </vehicle>
    <vehicle id="102" depart="102.00">
        <route edges="-174.0.00 -185.0.00 -184.0.00 -179.0.00 -178.0.00 -187.0.00 -175.0.00"/>
    </vehicle>
    <vehicle id="103" depart="103.00">
        <route edges="-174.0.00 -185.0.00 -184.0.00 -179.0.00 -178.0.00 -187.0.00 -175.0.00"/>
    </vehicle>
    <vehicle id="104" depart="104.00">
        <route edges="-174.0.00 -185.0.00 -184.0.00 -179.0.00 -189.0.00 -190.0.00"/>
    </vehicle>
    <vehicle id="105" depart="105.00">
        <route edges="-174.0.00 -185.0.00 -183.0.00 -182.0.00 -186.0.00"/>
    </vehicle>
    <vehicle id="106" depart="106.00">
        <route edges="-174.0.00 -185.0.00 -184.0.00 -177.0.00"/>
    </vehicle>
    <vehicle id="107" depart="107.00">
        <route edges="-188.0.00 -190.0.00"/>
    </vehicle>
    <vehicle id="108" depart="108.00">
        <route edges="-174.0.00 -185.0.00 -183.0.00 -182.0.00 -186.0.00"/>
    </vehicle>
    <vehicle id="109" depart="109.00">
        <route edges="-174.0.00 -185.0.00 -184.0.00 -179.0.00 -178.0.00 -187.0.00 -175.0.00"/>
    </vehicle>
    <vehicle id="110" depart="110.00">
        <route edges="-188.0.00 -172.0.00 -171.0.00 -177.0.00 -182.0.00"/>
    </vehicle>
    <vehicle id="111" depart="111.00">
        <route edges="-174.0.00 -185.0.00 -183.0.00 -182.0.00 -186.0.00"/>
    </vehicle>
    <vehicle id="112" depart="112.00">
        <route edges="-173.0.00 -172.0.00 -171.0.00 -177.0.00 -182.0.00"/>
    </vehicle>
    <vehicle id="113" depart="113.00">
        <route edges="-174.0.00 -185.0.00 -183.0.00 -182.0.00 -186.0.00"/>
    </vehicle>
    <vehicle id="114" depart="114.00">
        <route edges="-174.0.00 -185.0.00 -184.0.00 -179.0.00 -189.0.00 -190.0.00"/>
    </vehicle>
    <vehicle id="115" depart="115.00">
        <route edges="-173.0.00 -172.0.00 -178.0.00 -187.0.00 -175.0.00"/>
    </vehicle>
    <vehicle id="117" depart="117.00">
        <route edges="-174.0.00 -185.0.00 -184.0.00 -179.0.00 -178.0.00 -187.0.00 -175.0.00"/>
    </vehicle>
    <vehicle id="118" depart="118.00">
        <route edges="-184.0.00 -179.0.00 -178.0.00 -187.0.00 -175.0.00"/>
    </vehicle>
    <vehicle id="120" depart="120.00">
        <route edges="-174.0.00 -185.0.00 -183.0.00 -182.0.00"/>
    </vehicle>
    <vehicle id="122" depart="122.00">
        <route edges="-174.0.00 -185.0.00 -183.0.00 -182.0.00 -186.0.00"/>
    </vehicle>
    <vehicle id="123" depart="123.00">
        <route edges="-174.0.00 -185.0.00 -184.0.00 -179.0.00 -178.0.00 -187.0.00 -175.0.00"/>
    </vehicle>
    <vehicle id="124" depart="124.00">
        <route edges="-179.0.00 -178.0.00 -187.0.00 -175.0.00"/>
    </vehicle>
    <vehicle id="125" depart="125.00">
        <route edges="-174.0.00 -185.0.00 -183.0.00 -182.0.00 -186.0.00"/>
    </vehicle>
    <vehicle id="126" depart="126.00">
        <route edges="-173.0.00 -172.0.00 -178.0.00"/>
    </vehicle>
    <vehicle id="127" depart="127.00">
        <route edges="-189.0.00 -190.0.00"/>
    </vehicle>
    <vehicle id="128" depart="128.00">
        <route edges="-173.0.00 -172.0.00 -178.0.00 -187.0.00 -175.0.00"/>
    </vehicle>
    <vehicle id="130" depart="130.00">
        <route edges="-184.0.00 -177.0.00 -182.0.00 -186.0.00"/>
    </vehicle>
    <vehicle id="131" depart="131.00">
        <route edges="-174.0.00 -185.0.00 -184.0.00 -179.0.00 -178.0.00 -187.0.00 -175.0.00"/>
    </vehicle>
    <vehicle id="132" depart="132.00">
        <route edges="-183.0.00 -182.0.00 -186.0.00"/>
    </vehicle>
    <vehicle id="134" depart="134.00">
        <route edges="-179.0.00 -171.0.00"/>
    </vehicle>
    <vehicle id="137" depart="137.00">
        <route edges="-174.0.00 -185.0.00 -184.0.00 -179.0.00 -178.0.00 -187.0.00 -175.0.00"/>
    </vehicle>
    <vehicle id="139" depart="139.00">
        <route edges="-174.0.00 -185.0.00 -183.0.00"/>
    </vehicle>
    <vehicle id="140" depart="140.00">
        <route edges="-181.0.00 -187.0.00 -175.0.00"/>
    </vehicle>
    <vehicle id="141" depart="141.00">
        <route edges="-178.0.00 -187.0.00 -175.0.00"/>
    </vehicle>
    <vehicle id="142" depart="142.00">
        <route edges="-174.0.00 -185.0.00 -184.0.00 -179.0.00 -178.0.00 -187.0.00"/>
    </vehicle>
    <vehicle id="144" depart="144.00">
        <route edges="-174.0.00 -185.0.00 -184.0.00 -179.0.00 -178.0.00 -187.0.00 -175.0.00"/>
    </vehicle>
    <vehicle id="145" depart="145.00">
        <route edges="-171.0.00 -177.0.00 -182.0.00 -186.0.00"/>
    </vehicle>
    <vehicle id="146" depart="146.00">
        <route edges="-178.0.00 -187.0.00 -175.0.00"/>
    </vehicle>
    <vehicle id="147" depart="147.00">
        <route edges="-181.0.00"/>
    </vehicle>
    <vehicle id="148" depart="148.00">
        <route edges="-174.0.00 -185.0.00 -184.0.00 -179.0.00 -171.0.00"/>
    </vehicle>
    <vehicle id="149" depart="149.00">
        <route edges="-173.0.00 -172.0.00 -171.0.00 -177.0.00 -182.0.00 -186.0.00"/>
    </vehicle>
    <vehicle id="151" depart="151.00">
        <route edges="-183.0.00 -182.0.00"/>
    </vehicle>
    <vehicle id="152" depart="152.00">
        <route edges="-174.0.00 -185.0.00 -184.0.00 -179.0.00 -178.0.00 -187.0.00 -175.0.00"/>
    </vehicle>
    <vehicle id="153" depart="153.00">
        <route edges="-174.0.00 -185.0.00 -184.0.00 -179.0.00 -178.0.00 -187.0.00"/>
    </vehicle>
    <vehicle id="154" depart="154.00">
        <route edges="-182.0.00 -186.0.00"/>
    </vehicle>
    <vehicle id="155" depart="155.00">
        <route edges="-185.0.00 -184.0.00 -179.0.00 -178.0.00 -187.0.00 -175.0.00"/>
    </vehicle>
    <vehicle id="156" depart="156.00">
        <route edges="-174.0.00 -185.0.00 -184.0.00 -179.0.00 -178.0.00 -187.0.00 -175.0.00"/>
    </vehicle>
    <vehicle id="158" depart="158.00">
        <route edges="-174.0.00 -185.0.00 -183.0.00"/>
    </vehicle>
    <vehicle id="161" depart="161.00">
        <route edges="-182.0.00 -186.0.00"/>
    </vehicle>
    <vehicle id="162" depart="162.00">
        <route edges="-171.0.00 -177.0.00 -182.0.00 -186.0.00"/>
    </vehicle>
    <vehicle id="164" depart="164.00">
        <route edges="-182.0.00 -186.0.00"/>
    </vehicle>
    <vehicle id="166" depart="166.00">
        <route edges="-181.0.00 -187.0.00 -175.0.00"/>
    </vehicle>
    <vehicle id="167" depart="167.00">
        <route edges="-184.0.00 -177.0.00 -182.0.00 -186.0.00"/>
    </vehicle>
    <vehicle id="168" depart="168.00">
        <route edges="-174.0.00 -185.0.00 -183.0.00 -182.0.00 -186.0.00"/>
    </vehicle>
    <vehicle id="169" depart="169.00">
        <route edges="-174.0.00 -185.0.00 -184.0.00 -179.0.00 -178.0.00 -187.0.00 -175.0.00"/>
    </vehicle>
    <vehicle id="171" depart="171.00">
        <route edges="-171.0.00 -179.0.00 -178.0.00 -187.0.00 -175.0.00"/>
    </vehicle>
    <vehicle id="172" depart="172.00">
        <route edges="-174.0.00 -185.0.00 -183.0.00 -182.0.00 -186.0.00"/>
    </vehicle>
    <vehicle id="173" depart="173.00">
        <route edges="-188.0.00 -172.0.00 -178.0.00 -187.0.00 -175.0.00"/>
    </vehicle>
    <vehicle id="174" depart="174.00">
        <route edges="-178.0.00 -187.0.00 -175.0.00"/>
    </vehicle>
    <vehicle id="176" depart="176.00">
        <route edges="-187.0.00 -175.0.00"/>
    </vehicle>
    <vehicle id="177" depart="177.00">
        <route edges="-188.0.00 -172.0.00 -178.0.00 -187.0.00 -175.0.00"/>
    </vehicle>
    <vehicle id="178" depart="178.00">
        <route edges="-188.0.00 -172.0.00 -178.0.00 -187.0.00 -175.0.00"/>
    </vehicle>
    <vehicle id="179" depart="179.00">
        <route edges="-174.0.00 -185.0.00 -184.0.00 -179.0.00 -178.0.00"/>
    </vehicle>
    <vehicle id="180" depart="180.00">
        <route edges="-181.0.00 -187.0.00 -175.0.00"/>
    </vehicle>
    <vehicle id="183" depart="183.00">
        <route edges="-174.0.00 -185.0.00 -183.0.00 -182.0.00 -186.0.00"/>
    </vehicle>
    <vehicle id="185" depart="185.00">
        <route edges="-174.0.00 -185.0.00 -183.0.00 -182.0.00 -186.0.00"/>
    </vehicle>
    <vehicle id="187" depart="187.00">
        <route edges="-174.0.00 -185.0.00 -184.0.00 -179.0.00 -178.0.00 -187.0.00 -175.0.00"/>
    </vehicle>
    <vehicle id="188" depart="188.00">
        <route edges="-179.0.00 -178.0.00 -187.0.00 -175.0.00"/>
    </vehicle>
    <vehicle id="189" depart="189.00">
        <route edges="-174.0.00 -185.0.00 -183.0.00 -182.0.00 -186.0.00"/>
    </vehicle>
    <vehicle id="190" depart="190.00">
        <route edges="-181.0.00 -187.0.00 -175.0.00"/>
    </vehicle>
    <vehicle id="191" depart="191.00">
        <route edges="-174.0.00 -185.0.00 -184.0.00 -179.0.00 -178.0.00 -187.0.00 -175.0.00"/>
    </vehicle>
    <vehicle id="192" depart="192.00">
        <route edges="-174.0.00 -185.0.00 -184.0.00 -179.0.00 -178.0.00 -187.0.00 -175.0.00"/>
    </vehicle>
    <vehicle id="193" depart="193.00">
        <route edges="-174.0.00 -185.0.00 -184.0.00 -177.0.00"/>
    </vehicle>
    <vehicle id="195" depart="195.00">
        <route edges="-185.0.00 -183.0.00"/>
    </vehicle>
    <vehicle id="197" depart="197.00">
        <route edges="-171.0.00 -179.0.00 -178.0.00 -187.0.00 -175.0.00"/>
    </vehicle>
    <vehicle id="198" depart="198.00">
        <route edges="-174.0.00 -185.0.00 -183.0.00 -182.0.00"/>
    </vehicle>
    <vehicle id="199" depart="199.00">
        <route edges="-179.0.00 -178.0.00"/>
    </vehicle>
    <vehicle id="200" depart="200.00">
        <route edges="-174.0.00 -185.0.00 -184.0.00 -179.0.00 -178.0.00 -187.0.00 -175.0.00"/>
    </vehicle>
    <vehicle id="201" depart="201.00">
        <route edges="-174.0.00 -185.0.00 -184.0.00 -179.0.00 -178.0.00 -187.0.00"/>
    </vehicle>
    <vehicle id="204" depart="204.00">
        <route edges="-178.0.00 -187.0.00 -175.0.00"/>
    </vehicle>
    <vehicle id="205" depart="205.00">
        <route edges="-182.0.00 -186.0.00"/>
    </vehicle>
    <vehicle id="206" depart="206.00">
        <route edges="-179.0.00 -178.0.00 -187.0.00 -175.0.00"/>
    </vehicle>
    <vehicle id="207" depart="207.00">
        <route edges="-174.0.00 -185.0.00 -184.0.00 -179.0.00 -171.0.00"/>
    </vehicle>
    <vehicle id="208" depart="208.00">
        <route edges="-174.0.00 -185.0.00 -184.0.00 -179.0.00 -178.0.00"/>
    </vehicle>
    <vehicle id="210" depart="210.00">
        <route edges="-174.0.00 -185.0.00 -183.0.00"/>
    </vehicle>
    <vehicle id="211" depart="211.00">
        <route edges="-174.0.00 -185.0.00 -183.0.00 -182.0.00 -186.0.00"/>
    </vehicle>
    <vehicle id="212" depart="212.00">
        <route edges="-174.0.00 -185.0.00 -184.0.00 -179.0.00 -178.0.00 -187.0.00 -175.0.00"/>
    </vehicle>
    <vehicle id="213" depart="213.00">
        <route edges="-179.0.00 -171.0.00"/>
    </vehicle>
    <vehicle id="215" depart="215.00">
        <route edges="-174.0.00 -185.0.00 -184.0.00 -177.0.00"/>
    </vehicle>
    <vehicle id="216" depart="216.00">
        <route edges="-174.0.00 -185.0.00 -184.0.00 -179.0.00 -189.0.00"/>
    </vehicle>
    <vehicle id="217" depart="217.00">
        <route edges="-174.0.00 -185.0.00 -184.0.00 -179.0.00 -178.0.00 -187.0.00 -175.0.00"/>
    </vehicle>
    <vehicle id="218" depart="218.00">
        <route edges="-174.0.00 -185.0.00 -183.0.00 -182.0.00 -186.0.00"/>
    </vehicle>
    <vehicle id="219" depart="219.00">
        <route edges="-174.0.00 -185.0.00 -183.0.00 -182.0.00 -186.0.00"/>
    </vehicle>
    <vehicle id="220" depart="220.00">
        <route edges="-179.0.00 -189.0.00 -190.0.00"/>
    </vehicle>
    <vehicle id="225" depart="225.00">
        <route edges="-185.0.00 -183.0.00 -182.0.00 -186.0.00"/>
    </vehicle>
    <vehicle id="226" depart="226.00">
        <route edges="-174.0.00 -185.0.00 -184.0.00 -179.0.00 -178.0.00 -187.0.00 -175.0.00"/>
    </vehicle>
    <vehicle id="227" depart="227.00">
        <route edges="-174.0.00 -185.0.00 -184.0.00"/>
    </vehicle>
    <vehicle id="228" depart="228.00">
        <route edges="-181.0.00"/>
    </vehicle>
    <vehicle id="229" depart="229.00">
        <route edges="-178.0.00 -187.0.00 -175.0.00"/>
    </vehicle>
    <vehicle id="230" depart="230.00">
        <route edges="-173.0.00 -172.0.00 -178.0.00 -187.0.00 -175.0.00"/>
    </vehicle>
    <vehicle id="231" depart="231.00">
        <route edges="-174.0.00 -185.0.00 -184.0.00 -179.0.00 -178.0.00 -187.0.00 -175.0.00"/>
    </vehicle>
    <vehicle id="232" depart="232.00">
        <route edges="-174.0.00 -185.0.00 -184.0.00 -179.0.00 -178.0.00 -187.0.00 -175.0.00"/>
    </vehicle>
    <vehicle id="233" depart="233.00">
        <route edges="-174.0.00 -185.0.00 -183.0.00 -182.0.00 -186.0.00"/>
    </vehicle>
    <vehicle id="234" depart="234.00">
        <route edges="-180.0.00 -181.0.00 -187.0.00 -175.0.00"/>
    </vehicle>
    <vehicle id="236" depart="236.00">
        <route edges="-174.0.00 -185.0.00 -184.0.00 -179.0.00 -178.0.00 -187.0.00 -175.0.00"/>
    </vehicle>
    <vehicle id="237" depart="237.00">
        <route edges="-174.0.00 -185.0.00 -184.0.00 -179.0.00 -178.0.00 -187.0.00"/>
    </vehicle>
    <vehicle id="238" depart="238.00">
        <route edges="-177.0.00 -182.0.00 -186.0.00"/>
    </vehicle>
    <vehicle id="239" depart="239.00">
        <route edges="-183.0.00 -182.0.00 -186.0.00"/>
    </vehicle>
    <vehicle id="240" depart="240.00">
        <route edges="-174.0.00 -185.0.00 -184.0.00 -179.0.00 -171.0.00"/>
    </vehicle>
    <vehicle id="241" depart="241.00">
        <route edges="-174.0.00 -185.0.00 -183.0.00 -182.0.00 -186.0.00"/>
    </vehicle>
    <vehicle id="243" depart="243.00">
        <route edges="-174.0.00 -185.0.00 -183.0.00 -182.0.00 -186.0.00"/>
    </vehicle>
    <vehicle id="244" depart="244.00">
        <route edges="-174.0.00 -185.0.00 -183.0.00"/>
    </vehicle>
    <vehicle id="245" depart="245.00">
        <route edges="-174.0.00 -185.0.00 -184.0.00 -179.0.00 -178.0.00 -187.0.00 -175.0.00"/>
    </vehicle>
    <vehicle id="246" depart="246.00">
        <route edges="-174.0.00 -185.0.00 -184.0.00 -179.0.00 -171.0.00"/>
    </vehicle>
    <vehicle id="247" depart="247.00">
        <route edges="-174.0.00 -185.0.00 -183.0.00 -182.0.00 -186.0.00"/>
    </vehicle>
    <vehicle id="248" depart="248.00">
        <route edges="-174.0.00 -185.0.00 -184.0.00 -179.0.00 -178.0.00 -187.0.00 -175.0.00"/>
    </vehicle>
    <vehicle id="249" depart="249.00">
        <route edges="-174.0.00 -185.0.00 -184.0.00 -179.0.00 -178.0.00 -187.0.00 -175.0.00"/>
    </vehicle>
</routes>
