<?xml version="1.0" encoding="UTF-8"?>

<!-- generated on 2022-02-02 15:53:44 by Eclipse SUMO duarouter Version 1.11.0
<configuration xmlns:xsi="http://www.w3.org/2001/XMLSchema-instance" xsi:noNamespaceSchemaLocation="http://sumo.dlr.de/xsd/duarouterConfiguration.xsd">

    <input>
        <net-file value=".\script_carla\map_net_xml\pont_croisement.net.xml"/>
        <route-files value="trips.trips.xml"/>
    </input>

    <output>
        <output-file value=".\script_carla\map_rou_xml\pont_croisement.rou.xml"/>
        <alternatives-output value=".\script_carla\map_rou_xml\pont_croisement.rou.alt.xml"/>
    </output>

    <time>
        <begin value="0"/>
        <end value="50"/>
    </time>

    <report>
        <no-warnings value="true"/>
        <ignore-errors value="true"/>
        <no-step-log value="true"/>
    </report>

</configuration>
-->

<routes xmlns:xsi="http://www.w3.org/2001/XMLSchema-instance" xsi:noNamespaceSchemaLocation="http://sumo.dlr.de/xsd/routes_file.xsd">
    <vehicle id="0" depart="0.00">
        <route edges="-335.0.00 -339.0.00 -320.0.00 -321.0.00 -311.0.00 -310.0.00"/>
    </vehicle>
    <vehicle id="1" depart="1.00">
        <route edges="-320.0.00 -321.0.00 -311.0.00 -310.0.00 -316.0.00"/>
    </vehicle>
    <vehicle id="2" depart="2.00">
        <route edges="-343.0.00 -344.0.00 -317.0.00 -323.0.00 -327.0.00 -340.0.00 -318.0.00 -325.0.00"/>
    </vehicle>
    <vehicle id="3" depart="3.00">
        <route edges="-343.0.00 -344.0.00 -317.0.00 -323.0.00 -328.0.00 -338.0.00 -339.0.00 -320.0.00 -321.0.00 -311.0.00 -310.0.00"/>
    </vehicle>
    <vehicle id="7" depart="7.00">
        <route edges="-336.0.00 -337.0.00 -318.0.00 -325.0.00"/>
    </vehicle>
    <vehicle id="9" depart="9.00">
        <route edges="-343.0.00 -344.0.00 -317.0.00 -323.0.00 -328.0.00 -338.0.00 -339.0.00 -320.0.00 -321.0.00 -311.0.00 -310.0.00"/>
    </vehicle>
    <vehicle id="10" depart="10.00">
        <route edges="-343.0.00 -344.0.00 -317.0.00 -323.0.00 -327.0.00 -340.0.00 -318.0.00 -325.0.00"/>
    </vehicle>
    <vehicle id="11" depart="11.00">
        <route edges="-320.0.00 -321.0.00 -311.0.00 -310.0.00"/>
    </vehicle>
    <vehicle id="12" depart="12.00">
        <route edges="-345.0.00 -336.0.00 -337.0.00 -323.0.00 -328.0.00 -338.0.00 -339.0.00 -320.0.00"/>
    </vehicle>
    <vehicle id="13" depart="13.00">
        <route edges="-310.0.00"/>
    </vehicle>
    <vehicle id="14" depart="14.00">
        <route edges="-343.0.00 -344.0.00 -317.0.00 -323.0.00 -327.0.00 -340.0.00 -318.0.00 -325.0.00"/>
    </vehicle>
    <vehicle id="15" depart="15.00">
        <route edges="-343.0.00 -344.0.00 -317.0.00 -323.0.00 -327.0.00 -340.0.00 -318.0.00 -325.0.00"/>
    </vehicle>
    <vehicle id="17" depart="17.00">
        <route edges="-320.0.00 -321.0.00 -311.0.00 -310.0.00 -316.0.00 -340.0.00 -318.0.00 -325.0.00"/>
    </vehicle>
    <vehicle id="18" depart="18.00">
        <route edges="-343.0.00 -344.0.00 -317.0.00 -323.0.00 -327.0.00 -340.0.00 -318.0.00 -325.0.00"/>
    </vehicle>
    <vehicle id="19" depart="19.00">
        <route edges="-343.0.00 -344.0.00 -317.0.00 -323.0.00 -327.0.00 -340.0.00 -318.0.00 -325.0.00"/>
    </vehicle>
    <vehicle id="20" depart="20.00">
        <route edges="-343.0.00 -344.0.00 -317.0.00 -323.0.00 -328.0.00 -338.0.00 -339.0.00 -320.0.00 -321.0.00 -311.0.00 -310.0.00"/>
    </vehicle>
    <vehicle id="23" depart="23.00">
        <route edges="-310.0.00 -316.0.00 -340.0.00 -323.0.00 -328.0.00 -338.0.00 -339.0.00 -320.0.00"/>
    </vehicle>
    <vehicle id="24" depart="24.00">
        <route edges="-335.0.00 -339.0.00 -320.0.00"/>
    </vehicle>
    <vehicle id="26" depart="26.00">
        <route edges="-320.0.00 -321.0.00 -311.0.00 -310.0.00 -315.0.00 -342.0.00"/>
    </vehicle>
    <vehicle id="27" depart="27.00">
        <route edges="-336.0.00 -337.0.00 -318.0.00 -325.0.00"/>
    </vehicle>
    <vehicle id="30" depart="30.00">
        <route edges="-345.0.00 -336.0.00 -337.0.00 -318.0.00 -325.0.00"/>
    </vehicle>
    <vehicle id="32" depart="32.00">
        <route edges="-343.0.00 -344.0.00 -314.0.00 -330.0.00"/>
    </vehicle>
    <vehicle id="34" depart="34.00">
        <route edges="-320.0.00"/>
    </vehicle>
    <vehicle id="36" depart="36.00">
        <route edges="-343.0.00 -344.0.00 -317.0.00 -323.0.00 -328.0.00 -338.0.00 -339.0.00 -320.0.00"/>
    </vehicle>
    <vehicle id="37" depart="37.00">
        <route edges="-336.0.00 -337.0.00 -323.0.00 -328.0.00 -338.0.00 -339.0.00 -320.0.00"/>
    </vehicle>
    <vehicle id="38" depart="38.00">
        <route edges="-344.0.00 -317.0.00 -323.0.00"/>
    </vehicle>
    <vehicle id="42" depart="42.00">
        <route edges="-323.0.00 -328.0.00 -338.0.00 -339.0.00 -315.0.00"/>
    </vehicle>
    <vehicle id="43" depart="43.00">
        <route edges="-345.0.00 -336.0.00 -337.0.00 -318.0.00 -325.0.00"/>
    </vehicle>
    <vehicle id="44" depart="44.00">
        <route edges="-310.0.00"/>
    </vehicle>
    <vehicle id="45" depart="45.00">
        <route edges="-310.0.00 -316.0.00 -340.0.00 -318.0.00 -325.0.00"/>
    </vehicle>
    <vehicle id="46" depart="46.00">
        <route edges="-343.0.00 -344.0.00 -317.0.00 -323.0.00 -328.0.00 -338.0.00 -339.0.00 -320.0.00"/>
    </vehicle>
    <vehicle id="47" depart="47.00">
        <route edges="-310.0.00 -316.0.00 -340.0.00 -323.0.00 -328.0.00 -338.0.00 -339.0.00 -320.0.00"/>
    </vehicle>
    <vehicle id="48" depart="48.00">
        <route edges="-345.0.00 -336.0.00 -337.0.00 -318.0.00 -325.0.00"/>
    </vehicle>
    <vehicle id="49" depart="49.00">
        <route edges="-345.0.00 -336.0.00 -337.0.00 -323.0.00 -327.0.00 -340.0.00"/>
    </vehicle>
</routes>
