<?xml version="1.0" encoding="UTF-8"?>

<!-- generated on 2022-01-24 15:10:19 by Eclipse SUMO duarouter Version 1.11.0
<configuration xmlns:xsi="http://www.w3.org/2001/XMLSchema-instance" xsi:noNamespaceSchemaLocation="http://sumo.dlr.de/xsd/duarouterConfiguration.xsd">

    <input>
        <net-file value=".\script_carla\map_net_xml\rond_point_toulouse.net.xml"/>
        <route-files value="trips.trips.xml"/>
    </input>

    <output>
        <output-file value=".\script_carla\map_rou_xml\rond_point_toulouse.rou.xml"/>
        <alternatives-output value=".\script_carla\map_rou_xml\rond_point_toulouse.rou.alt.xml"/>
    </output>

    <time>
        <begin value="0"/>
        <end value="30"/>
    </time>

    <report>
        <no-warnings value="true"/>
        <ignore-errors value="true"/>
        <no-step-log value="true"/>
    </report>

</configuration>
-->

<routes xmlns:xsi="http://www.w3.org/2001/XMLSchema-instance" xsi:noNamespaceSchemaLocation="http://sumo.dlr.de/xsd/routes_file.xsd">
    <vehicle id="0" depart="0.00">
        <route edges="-145.0.00 -149.0.00 -150.0.00 -151.0.00 -140.0.00"/>
    </vehicle>
    <vehicle id="1" depart="1.00">
        <route edges="-145.0.00 -149.0.00 -150.0.00 -151.0.00 -140.0.00"/>
    </vehicle>
    <vehicle id="2" depart="2.00">
        <route edges="-145.0.00 -149.0.00 -150.0.00 -151.0.00 -146.0.00 -152.0.00 -142.0.00 -147.0.00"/>
    </vehicle>
    <vehicle id="3" depart="3.00">
        <route edges="-153.0.00 -151.0.00 -140.0.00"/>
    </vehicle>
    <vehicle id="4" depart="4.00">
        <route edges="-145.0.00 -149.0.00 -150.0.00 -151.0.00 -140.0.00"/>
    </vehicle>
    <vehicle id="5" depart="5.00">
        <route edges="-145.0.00 -149.0.00 -150.0.00 -151.0.00 -146.0.00 -144.0.00"/>
    </vehicle>
    <vehicle id="6" depart="6.00">
        <route edges="-142.0.00 -143.0.00 -149.0.00 -150.0.00 -151.0.00 -140.0.00"/>
    </vehicle>
    <vehicle id="7" depart="7.00">
        <route edges="-145.0.00 -149.0.00 -150.0.00 -151.0.00 -146.0.00 -144.0.00"/>
    </vehicle>
    <vehicle id="8" depart="8.00">
        <route edges="-145.0.00 -149.0.00 -150.0.00 -151.0.00 -146.0.00 -144.0.00"/>
    </vehicle>
    <vehicle id="9" depart="9.00">
        <route edges="-148.0.00 -142.0.00 -143.0.00 -149.0.00 -150.0.00 -151.0.00 -140.0.00"/>
    </vehicle>
    <vehicle id="10" depart="10.00">
        <route edges="-148.0.00 -142.0.00 -147.0.00"/>
    </vehicle>
    <vehicle id="11" depart="11.00">
        <route edges="-145.0.00 -149.0.00 -150.0.00 -151.0.00 -140.0.00"/>
    </vehicle>
    <vehicle id="12" depart="12.00">
        <route edges="-153.0.00 -151.0.00 -146.0.00 -152.0.00 -142.0.00 -143.0.00 -149.0.00 -141.0.00"/>
    </vehicle>
    <vehicle id="13" depart="13.00">
        <route edges="-145.0.00 -149.0.00 -150.0.00 -151.0.00 -140.0.00"/>
    </vehicle>
    <vehicle id="14" depart="14.00">
        <route edges="-153.0.00 -151.0.00 -146.0.00 -144.0.00"/>
    </vehicle>
    <vehicle id="15" depart="15.00">
        <route edges="-148.0.00 -142.0.00 -147.0.00"/>
    </vehicle>
    <vehicle id="16" depart="16.00">
        <route edges="-145.0.00 -149.0.00 -150.0.00 -151.0.00 -146.0.00 -152.0.00 -142.0.00 -147.0.00"/>
    </vehicle>
    <vehicle id="17" depart="17.00">
        <route edges="-145.0.00 -149.0.00 -150.0.00 -151.0.00 -146.0.00 -144.0.00"/>
    </vehicle>
    <vehicle id="18" depart="18.00">
        <route edges="-148.0.00 -142.0.00 -143.0.00 -149.0.00 -150.0.00 -151.0.00 -146.0.00 -144.0.00"/>
    </vehicle>
    <vehicle id="19" depart="19.00">
        <route edges="-153.0.00 -151.0.00 -146.0.00 -144.0.00"/>
    </vehicle>
    <vehicle id="20" depart="20.00">
        <route edges="-145.0.00 -149.0.00 -150.0.00 -151.0.00 -140.0.00"/>
    </vehicle>
    <vehicle id="21" depart="21.00">
        <route edges="-145.0.00 -149.0.00 -141.0.00"/>
    </vehicle>
    <vehicle id="22" depart="22.00">
        <route edges="-145.0.00 -149.0.00 -141.0.00"/>
    </vehicle>
    <vehicle id="23" depart="23.00">
        <route edges="-145.0.00 -149.0.00 -141.0.00"/>
    </vehicle>
    <vehicle id="24" depart="24.00">
        <route edges="-145.0.00 -149.0.00 -141.0.00"/>
    </vehicle>
    <vehicle id="25" depart="25.00">
        <route edges="-145.0.00 -149.0.00 -150.0.00 -151.0.00 -140.0.00"/>
    </vehicle>
    <vehicle id="26" depart="26.00">
        <route edges="-145.0.00 -149.0.00 -150.0.00 -151.0.00 -146.0.00 -152.0.00 -142.0.00 -147.0.00"/>
    </vehicle>
    <vehicle id="27" depart="27.00">
        <route edges="-145.0.00 -149.0.00 -150.0.00 -151.0.00 -146.0.00 -144.0.00"/>
    </vehicle>
    <vehicle id="28" depart="28.00">
        <route edges="-145.0.00 -149.0.00 -150.0.00 -151.0.00 -146.0.00 -152.0.00 -142.0.00 -147.0.00"/>
    </vehicle>
    <vehicle id="29" depart="29.00">
        <route edges="-145.0.00 -149.0.00 -141.0.00"/>
    </vehicle>
</routes>
